Circuit: * C:\Users\HP\Desktop\SnR\LTSpice\Draft1.asc

.OP point found by inspection.

Date: Mon May 13 20:31:26 2019
Total elapsed time: 0.024 seconds.

tnom = 27
temp = 27
method = modified trap
totiter = 230
traniter = 230
tranpoints = 116
accept = 108
rejected = 8
matrix size = 3
fillins = 0
solver = Normal
Matrix Compiler1:       5 opcodes  0.0/[0.0]/0.0
Matrix Compiler2: 163 bytes object code size  0.0/0.0/[0.0]

