Circuit: * C:\Users\HP\Desktop\SnR\Simulations\Draft2.asc

WARNING: Node N004 is floating.
WARNING: Node N006 is floating.


Date: Fri May 17 18:26:37 2019
Total elapsed time: 0.022 seconds.

tnom = 27
temp = 27
method = trap
totiter = 0
traniter = 0
tranpoints = 0
accept = 0
rejected = 0
matrix size = 11
fillins = 6
solver = Normal

