Circuit: * C:\Users\Sameer\Desktop\DFTBA\Projects\Inductive PnD\Simulations\ClassE.asc

Direct Newton iteration for .op point succeeded.
N-Period=1
Fourier components of I(r1)
DC component:3.88699e-005

Harmonic	Frequency	 Fourier 	Normalized	 Phase  	Normalized
 Number 	  [Hz]   	Component	 Component	[degree]	Phase [deg]
    1   	2.712e+07	4.777e-02	1.000e+00	  -37.71°	    0.00°
    2   	5.424e+07	2.442e-03	5.112e-02	 -139.00°	 -101.29°
    3   	8.136e+07	4.909e-04	1.028e-02	  -71.30°	  -33.59°
    4   	1.085e+08	1.437e-04	3.009e-03	  173.65°	  211.36°
    5   	1.356e+08	9.348e-05	1.957e-03	 -158.11°	 -120.40°
    6   	1.627e+08	1.064e-04	2.228e-03	  168.84°	  206.55°
    7   	1.898e+08	6.355e-05	1.330e-03	   -3.17°	   34.54°
    8   	2.170e+08	3.540e-05	7.412e-04	 -138.18°	 -100.47°
    9   	2.441e+08	6.778e-05	1.419e-03	   80.84°	  118.55°
Total Harmonic Distortion: 5.235471%(5.247990%)



pout: AVG(i(r1)*v(vout))=0.0229241 FROM 0 TO 9.2e-006
pin: AVG(i(v1)*v(vdd))=-0.0246873 FROM 0 TO 9.2e-006
eff: pout/pin=-0.92858
pgate: AVG(i(v2)*v(vg))=-0.00100332 FROM 0 TO 9.2e-006
pae: pout/(pin+pgate)=-0.892316
c1: 0.1836/(2*3.1415*f*rload)=5.38748e-011
l: ql*rload/(2*pi*f)=1.17371e-006
c: 1/((ql-1.1525)*2*pi*f*rload)=3.3165e-011
pout_th=9.2e-006 FROM 0 TO 9.2e-006


Date: Fri Sep 20 12:54:37 2019
Total elapsed time: 3.570 seconds.

tnom = 27
temp = 27
method = modified trap
totiter = 672413
traniter = 672409
tranpoints = 171991
accept = 133134
rejected = 38857
matrix size = 10
fillins = 0
solver = Normal
Matrix Compiler1: 480 bytes object code size  0.1/0.1/[0.1]
Matrix Compiler2: 720 bytes object code size  0.1/0.1/[0.1]

