Circuit: * C:\Users\Sameer\Desktop\DFTBA\Projects\Inductive PnD\Simulations\ClassE_v3.asc

Direct Newton iteration for .op point succeeded.
N-Period=1
Fourier components of I(ls)
DC component:0.000819512

Harmonic	Frequency	 Fourier 	Normalized	 Phase  	Normalized
 Number 	  [Hz]   	Component	 Component	[degree]	Phase [deg]
    1   	2.712e+07	1.440e-02	1.000e+00	   -8.18°	    0.00°
    2   	5.424e+07	4.055e-03	2.817e-01	  153.43°	  161.61°
    3   	8.136e+07	1.230e-03	8.545e-02	   86.91°	   95.09°
    4   	1.085e+08	5.874e-04	4.081e-02	   12.91°	   21.09°
    5   	1.356e+08	2.751e-04	1.911e-02	  -56.16°	  -47.98°
    6   	1.627e+08	2.042e-04	1.418e-02	 -103.88°	  -95.70°
    7   	1.898e+08	1.655e-04	1.150e-02	  179.91°	  188.09°
    8   	2.170e+08	1.039e-04	7.218e-03	  122.13°	  130.31°
    9   	2.441e+08	8.023e-05	5.573e-03	   53.19°	   61.37°
Total Harmonic Distortion: 29.846942%(29.859558%)



pin: AVG(-(i(v1)*v(vdd)))=0.0156734 FROM 0 TO 9.2e-007
pgate: AVG(-(i(v2)*v(vg)))=0.000446407 FROM 0 TO 9.2e-007
ptx: AVG(i(lp)*v(vtx))=0.00118495 FROM 0 TO 9.2e-007
prx: AVG((i(ls)+i(cs))*v(vrx))=-0.00104191 FROM 0 TO 9.2e-007
pout: AVG(i(r1)*(v(vout+)-v(vout-)))=0.000689362 FROM 0 TO 9.2e-007
pte_pa: 100*ptx/pin=7.56027
pte_coil: 100*prx/ptx=-87.9281
pte_rect: 100*pout/prx=-66.1636
pte: 100*pout/pin=4.39829
pae: 100*pout/(pin+pgate)=4.27649


Date: Wed Jun 24 16:13:50 2020
Total elapsed time: 3.592 seconds.

tnom = 27
temp = 27
method = modified trap
totiter = 149352
traniter = 149342
tranpoints = 38186
accept = 27194
rejected = 10992
matrix size = 21
fillins = 12
solver = Normal
Matrix Compiler1: 1.55 KB object code size  0.7/0.4/[0.3]
Matrix Compiler2: 1.72 KB object code size  0.4/0.5/[0.3]

