Circuit: * C:\Users\Sameer\Desktop\DFTBA\Projects\Ultrasonic PnD 2\Simulations\ClassD_VoltageSwitching.asc

Direct Newton iteration failed to find .op point.  (Use ".option noopiter" to skip.)
Starting Gmin stepping
Gmin = 10
Gmin = 1.07374
Gmin = 0.115292
Gmin = 0.0123794
Gmin = 0.00132923
Gmin = 0.000142725
Gmin = 1.5325e-005
Gmin = 1.6455e-006
Gmin = 1.76685e-007
Gmin = 1.89714e-008
Gmin = 2.03704e-009
Gmin = 2.18725e-010
Gmin = 2.34854e-011
Gmin = 2.52173e-012
Gmin = 2.70769e-013
Gmin = 0
Gmin stepping succeeded in finding the operating point.

N-Period=1
Fourier components of I(r1)
DC component:0.00011324

Harmonic	Frequency	 Fourier 	Normalized	 Phase  	Normalized
 Number 	  [Hz]   	Component	 Component	[degree]	Phase [deg]
    1   	2.700e+07	1.856e-02	1.000e+00	   39.45°	    0.00°
    2   	5.400e+07	4.670e-05	2.516e-03	   -8.15°	  -47.60°
    3   	8.100e+07	1.641e-04	8.842e-03	   76.03°	   36.58°
    4   	1.080e+08	4.045e-05	2.179e-03	   40.68°	    1.22°
    5   	1.350e+08	1.908e-04	1.028e-02	  175.80°	  136.35°
    6   	1.620e+08	5.601e-06	3.017e-04	  -43.97°	  -83.43°
    7   	1.890e+08	5.324e-05	2.868e-03	 -117.74°	 -157.19°
    8   	2.160e+08	1.769e-05	9.529e-04	  -69.34°	 -108.80°
    9   	2.430e+08	2.081e-05	1.121e-03	 -157.26°	 -196.71°
Total Harmonic Distortion: 1.433027%(1.499387%)



pout: RMS(i(r1)*v(vout))=0.0102315 FROM 0 TO 1.6e-006
pin: RMS(i(v1)*v(vdd))=0.0123774 FROM 0 TO 1.6e-006
eff: pout/pin=0.826622


Date: Fri Aug 16 19:25:47 2019
Total elapsed time: 1.202 seconds.

tnom = 27
temp = 27
method = modified trap
totiter = 104716
traniter = 104343
tranpoints = 29982
accept = 23290
rejected = 6692
matrix size = 16
fillins = 3
solver = Normal
Matrix Compiler1: 886 bytes object code size  0.2/0.1/[0.1]
Matrix Compiler2: 1.18 KB object code size  0.1/0.7/[0.1]

