Circuit: * C:\Users\Sameer\Desktop\DFTBA\Projects\Ultrasonic PnD 2\Simulations\ClassD_CurrentSwitching.asc

Direct Newton iteration for .op point succeeded.
N-Period=1
Fourier components of I(r1)
DC component:-0.000193542

Harmonic	Frequency	 Fourier 	Normalized	 Phase  	Normalized
 Number 	  [Hz]   	Component	 Component	[degree]	Phase [deg]
    1   	2.700e+07	4.156e-02	1.000e+00	   90.99°	    0.00°
    2   	5.400e+07	9.206e-05	2.215e-03	  162.58°	   71.58°
    3   	8.100e+07	4.313e-03	1.038e-01	   88.38°	   -2.61°
    4   	1.080e+08	1.161e-04	2.794e-03	   86.97°	   -4.02°
    5   	1.350e+08	2.450e-03	5.896e-02	  133.56°	   42.56°
    6   	1.620e+08	1.297e-04	3.122e-03	  111.99°	   21.00°
    7   	1.890e+08	1.643e-03	3.953e-02	 -176.32°	 -267.32°
    8   	2.160e+08	1.318e-04	3.172e-03	  139.04°	   48.05°
    9   	2.430e+08	1.298e-03	3.123e-02	 -124.86°	 -215.85°
Total Harmonic Distortion: 12.968207%(14.544226%)



pout: AVG(i(r1)*v(vout))=0.0175056 FROM 0 TO 3.312e-006
pin: AVG(i(v1)*v(vdd))=-0.00495837 FROM 0 TO 3.312e-006
eff: pout/pin=-3.53052


Date: Mon Aug 19 18:49:14 2019
Total elapsed time: 2.167 seconds.

tnom = 27
temp = 27
method = modified trap
totiter = 102252
traniter = 102248
tranpoints = 30066
accept = 23277
rejected = 6789
matrix size = 14
fillins = 2
solver = Normal
Matrix Compiler1: 670 bytes object code size  0.5/0.3/[0.2]
Matrix Compiler2: 1.03 KB object code size  0.2/0.4/[0.2]

