Circuit: * C:\Users\Sameer\Desktop\DFTBA\Projects\Inductive PnD\Simulations\CMCD_Coil.asc

WARNING: Node N002 is floating.

Direct Newton iteration for .op point succeeded.
N-Period=1
Fourier components of I(r1)
DC component:-1.#IND

Harmonic	Frequency	 Fourier 	Normalized	 Phase  	Normalized
 Number 	  [Hz]   	Component	 Component	[degree]	Phase [deg]
    1   	2.712e+07	-1.#IOe+00	-1.#IOe+00	   -1.#J°	   -1.#J°
    2   	5.424e+07	-1.#IOe+00	-1.#IOe+00	   -1.#J°	   -1.#J°
    3   	8.136e+07	-1.#IOe+00	-1.#IOe+00	   -1.#J°	   -1.#J°
    4   	1.085e+08	-1.#IOe+00	-1.#IOe+00	   -1.#J°	   -1.#J°
    5   	1.356e+08	-1.#IOe+00	-1.#IOe+00	   -1.#J°	   -1.#J°
    6   	1.627e+08	-1.#IOe+00	-1.#IOe+00	   -1.#J°	   -1.#J°
    7   	1.898e+08	-1.#IOe+00	-1.#IOe+00	   -1.#J°	   -1.#J°
    8   	2.170e+08	-1.#IOe+00	-1.#IOe+00	   -1.#J°	   -1.#J°
    9   	2.441e+08	-1.#IOe+00	-1.#IOe+00	   -1.#J°	   -1.#J°
Total Harmonic Distortion: -1.#IND00%(0.000000%)



pout: AVG(i(r1)*v(vout))=1.#QNAN FROM 0 TO 9.2e-007
pin: AVG(i(v1)*v(vdd))=1.#QNAN FROM 0 TO 9.2e-007

Measurement "pgate" FAIL'ed
eff: pout/pin=1.#QNAN

Measurement "pae" FAIL'ed


Date: Thu Sep 19 20:37:06 2019
Total elapsed time: 1.272 seconds.

tnom = 27
temp = 27
method = modified trap
totiter = 25565
traniter = 25561
tranpoints = 12137
accept = 10039
rejected = 2098
matrix size = 17
fillins = 0
solver = Normal
Matrix Compiler1: 1.16 KB object code size  0.5/0.4/[0.3]
Matrix Compiler2: 1.36 KB object code size  0.3/0.4/[0.3]

