Circuit: * C:\Users\Sameer\Desktop\DFTBA\Projects\Inductive PnD\Simulations\CMCD.asc

Direct Newton iteration for .op point succeeded.
N-Period=1
Fourier components of I(r1)
DC component:8.82833e-005

Harmonic	Frequency	 Fourier 	Normalized	 Phase  	Normalized
 Number 	  [Hz]   	Component	 Component	[degree]	Phase [deg]
    1   	2.712e+07	2.668e-01	1.000e+00	  -58.34°	    0.00°
    2   	5.424e+07	2.218e-04	8.314e-04	   72.25°	  130.59°
    3   	8.136e+07	5.175e-03	1.940e-02	   97.36°	  155.69°
    4   	1.085e+08	1.684e-04	6.313e-04	   35.57°	   93.91°
    5   	1.356e+08	1.818e-03	6.812e-03	  -13.46°	   44.88°
    6   	1.627e+08	1.140e-04	4.274e-04	   -3.49°	   54.84°
    7   	1.898e+08	8.430e-04	3.159e-03	 -125.27°	  -66.93°
    8   	2.170e+08	7.005e-05	2.625e-04	  -54.50°	    3.84°
    9   	2.441e+08	4.861e-04	1.822e-03	  116.80°	  175.13°
Total Harmonic Distortion: 2.091114%(2.102363%)



pout: AVG(i(r1)*(v(vo+)-v(vo-)))=-0.711672 FROM 0 TO 9.2e-007
pin: AVG(i(v1)*v(vdd))=-1.25783 FROM 0 TO 9.2e-007
pgate: AVG(i(v2)*v(vg+) + i(v3)*v(vg-))=-0.00331012 FROM 0 TO 9.2e-007
eff: pout/pin=0.565795
pae: pout/(pin+pgate)=0.56431


Date: Fri Sep 20 13:24:00 2019
Total elapsed time: 3.557 seconds.

tnom = 27
temp = 27
method = modified trap
totiter = 368490
traniter = 368486
tranpoints = 77603
accept = 54149
rejected = 23454
matrix size = 16
fillins = 4
solver = Normal
Matrix Compiler1: 1.01 KB object code size  0.2/0.1/[0.1]
Matrix Compiler2: 1.26 KB object code size  0.1/0.1/[0.1]

