Circuit: * C:\Users\Sameer\Desktop\DFTBA\Projects\Inductive PnD\Simulations\Draft3.asc

Direct Newton iteration for .op point succeeded.
Heightened Def Con from 2.22852e-010 to 6.22285e-009
Heightened Def Con from 4.18431e-008 to 4.39681e-008
Heightened Def Con from 4.40058e-008 to 4.50061e-008
Heightened Def Con from 4.50083e-008 to 5.20083e-008
Heightened Def Con from 6.15943e-008 to 6.75943e-008
Heightened Def Con from 7.08274e-008 to 7.18276e-008
Heightened Def Con from 7.18298e-008 to 7.4346e-008
Heightened Def Con from 7.54102e-008 to 7.57852e-008
Heightened Def Con from 7.59198e-008 to 8.29198e-008
Heightened Def Con from 8.96749e-008 to 9.66749e-008
Heightened Def Con from 1.34105e-007 to 1.37605e-007
Heightened Def Con from 1.43818e-007 to 1.47318e-007
Heightened Def Con from 1.49954e-007 to 1.56954e-007
Heightened Def Con from 1.57253e-007 to 1.63253e-007
Heightened Def Con from 1.92832e-007 to 1.98832e-007
Heightened Def Con from 2.0189e-007 to 2.0789e-007
Heightened Def Con from 2.12027e-007 to 2.14152e-007
Heightened Def Con from 2.14178e-007 to 2.17178e-007
Heightened Def Con from 2.17194e-007 to 2.18194e-007
Heightened Def Con from 2.18196e-007 to 2.27196e-007
Heightened Def Con from 2.37609e-007 to 2.43609e-007
Heightened Def Con from 2.47192e-007 to 2.53192e-007
Heightened Def Con from 2.55989e-007 to 2.61989e-007
Heightened Def Con from 2.71716e-007 to 2.77716e-007
Heightened Def Con from 2.85561e-007 to 2.91561e-007
Heightened Def Con from 2.95031e-007 to 3.03031e-007
Heightened Def Con from 3.05044e-007 to 3.06169e-007
Heightened Def Con from 3.06259e-007 to 3.12259e-007
Heightened Def Con from 3.16585e-007 to 3.22585e-007
Heightened Def Con from 3.25754e-007 to 3.33879e-007
Heightened Def Con from 3.34951e-007 to 3.36076e-007
Heightened Def Con from 3.36153e-007 to 3.44153e-007
Heightened Def Con from 3.48806e-007 to 3.54806e-007
Heightened Def Con from 3.59828e-007 to 3.65828e-007
Heightened Def Con from 3.6896e-007 to 3.7246e-007
Heightened Def Con from 3.76447e-007 to 3.79947e-007
Heightened Def Con from 3.84045e-007 to 3.9117e-007
Heightened Def Con from 3.92686e-007 to 3.98686e-007
Heightened Def Con from 4.00899e-007 to 4.07899e-007
Heightened Def Con from 4.08976e-007 to 4.15976e-007
Heightened Def Con from 4.19011e-007 to 4.20011e-007
Heightened Def Con from 4.20013e-007 to 4.20264e-007
Heightened Def Con from 4.20267e-007 to 4.26267e-007
Heightened Def Con from 4.38269e-007 to 4.47269e-007
Heightened Def Con from 4.4983e-007 to 4.5583e-007
Heightened Def Con from 4.58147e-007 to 4.59147e-007
Heightened Def Con from 4.59149e-007 to 4.62274e-007
Heightened Def Con from 4.62295e-007 to 4.65795e-007
Heightened Def Con from 4.74905e-007 to 4.78405e-007
Heightened Def Con from 4.82492e-007 to 4.83493e-007
Heightened Def Con from 4.83495e-007 to 4.86745e-007
Heightened Def Con from 4.8677e-007 to 4.9377e-007
Heightened Def Con from 4.96436e-007 to 5.02561e-007
Heightened Def Con from 5.03647e-007 to 5.09647e-007
Heightened Def Con from 5.11889e-007 to 5.17889e-007
Heightened Def Con from 5.5044e-007 to 5.51565e-007
Heightened Def Con from 5.51794e-007 to 5.57794e-007
Heightened Def Con from 5.61278e-007 to 5.67403e-007
Heightened Def Con from 5.68363e-007 to 5.74363e-007
Heightened Def Con from 5.77424e-007 to 5.83424e-007
Heightened Def Con from 6.15493e-007 to 6.16868e-007
Heightened Def Con from 6.17158e-007 to 6.20658e-007
Heightened Def Con from 6.27205e-007 to 6.3433e-007
Heightened Def Con from 6.34986e-007 to 6.40986e-007
Heightened Def Con from 6.42506e-007 to 6.48506e-007
Heightened Def Con from 6.56971e-007 to 6.57971e-007
Heightened Def Con from 6.57974e-007 to 6.64974e-007
Heightened Def Con from 6.75903e-007 to 6.85028e-007
Heightened Def Con from 6.86116e-007 to 6.93241e-007
Heightened Def Con from 6.94446e-007 to 7.00696e-007
Heightened Def Con from 7.01791e-007 to 7.02166e-007
Heightened Def Con from 7.02292e-007 to 7.11292e-007
Heightened Def Con from 7.12116e-007 to 7.20116e-007
Heightened Def Con from 7.22786e-007 to 7.23161e-007
Heightened Def Con from 7.23233e-007 to 7.29233e-007
Heightened Def Con from 7.34491e-007 to 7.40491e-007
Heightened Def Con from 7.44081e-007 to 7.53081e-007
Heightened Def Con from 7.54053e-007 to 7.60053e-007
Heightened Def Con from 7.63267e-007 to 7.73267e-007
Heightened Def Con from 7.74805e-007 to 7.7618e-007
Heightened Def Con from 7.76439e-007 to 7.83439e-007
Heightened Def Con from 7.88366e-007 to 7.89491e-007
Heightened Def Con from 7.89568e-007 to 7.93068e-007
Heightened Def Con from 7.99756e-007 to 8.03256e-007
Heightened Def Con from 8.08471e-007 to 8.11971e-007
Heightened Def Con from 8.15523e-007 to 8.21648e-007
Heightened Def Con from 8.23139e-007 to 8.30264e-007
Heightened Def Con from 8.30785e-007 to 8.36785e-007
Heightened Def Con from 8.39239e-007 to 8.50364e-007
Heightened Def Con from 8.50546e-007 to 8.56546e-007
Heightened Def Con from 8.89179e-007 to 8.89679e-007
Heightened Def Con from 8.8968e-007 to 8.9368e-007
Heightened Def Con from 8.98038e-007 to 8.98289e-007
Heightened Def Con from 8.98292e-007 to 9.05417e-007
Heightened Def Con from 9.06034e-007 to 9.11034e-007
Heightened Def Con from 9.11106e-007 to 9.17106e-007
Heightened Def Con from 9.46351e-007 to 9.55351e-007
Heightened Def Con from 9.55976e-007 to 9.61976e-007
Heightened Def Con from 9.64333e-007 to 9.70333e-007
Heightened Def Con from 9.73359e-007 to 9.79359e-007
Heightened Def Con from 9.86519e-007 to 9.92519e-007
Heightened Def Con from 9.98667e-007 to 1.00467e-006
Heightened Def Con from 1.00816e-006 to 1.00954e-006
Heightened Def Con from 1.00987e-006 to 1.01587e-006
Heightened Def Con from 1.02013e-006 to 1.02613e-006
Heightened Def Con from 1.02969e-006 to 1.03882e-006
Heightened Def Con from 1.03979e-006 to 1.04091e-006
Heightened Def Con from 1.04109e-006 to 1.05121e-006
Heightened Def Con from 1.05172e-006 to 1.05284e-006
Heightened Def Con from 1.0529e-006 to 1.0539e-006
Heightened Def Con from 1.05392e-006 to 1.05992e-006
Heightened Def Con from 1.06515e-006 to 1.07115e-006
Heightened Def Con from 1.07571e-006 to 1.07921e-006
Heightened Def Con from 1.08371e-006 to 1.09071e-006
Heightened Def Con from 1.09208e-006 to 1.09921e-006
Heightened Def Con from 1.10063e-006 to 1.10113e-006
Heightened Def Con from 1.10141e-006 to 1.10753e-006
Heightened Def Con from 1.10863e-006 to 1.10975e-006
Heightened Def Con from 1.10984e-006 to 1.11584e-006
Heightened Def Con from 1.11966e-006 to 1.12566e-006
Heightened Def Con from 1.12863e-006 to 1.13463e-006
Heightened Def Con from 1.13806e-006 to 1.13906e-006
Heightened Def Con from 1.13906e-006 to 1.13931e-006
Heightened Def Con from 1.13932e-006 to 1.14532e-006
Heightened Def Con from 1.15213e-006 to 1.16013e-006
Heightened Def Con from 1.16368e-006 to 1.16506e-006
Heightened Def Con from 1.16519e-006 to 1.17219e-006
Heightened Def Con from 1.17557e-006 to 1.17907e-006
Heightened Def Con from 1.18373e-006 to 1.18473e-006
Heightened Def Con from 1.18473e-006 to 1.18823e-006
Heightened Def Con from 1.18834e-006 to 1.19184e-006
Heightened Def Con from 1.19857e-006 to 1.20557e-006
Heightened Def Con from 1.20643e-006 to 1.20693e-006
Heightened Def Con from 1.2073e-006 to 1.21342e-006
Heightened Def Con from 1.21417e-006 to 1.22129e-006
Heightened Def Con from 1.2219e-006 to 1.2224e-006
Heightened Def Con from 1.22259e-006 to 1.22309e-006
Heightened Def Con from 1.22319e-006 to 1.22919e-006
Heightened Def Con from 1.23188e-006 to 1.23888e-006
Heightened Def Con from 1.24154e-006 to 1.24854e-006
Heightened Def Con from 1.25103e-006 to 1.25703e-006
Heightened Def Con from 1.26064e-006 to 1.26164e-006
Heightened Def Con from 1.26164e-006 to 1.26864e-006
Heightened Def Con from 1.30186e-006 to 1.30386e-006
Heightened Def Con from 1.30386e-006 to 1.31199e-006
Heightened Def Con from 1.31243e-006 to 1.31856e-006
Heightened Def Con from 1.31859e-006 to 1.32859e-006
Heightened Def Con from 1.35616e-006 to 1.36216e-006
Heightened Def Con from 1.36666e-006 to 1.37266e-006
Heightened Def Con from 1.37869e-006 to 1.37969e-006
Heightened Def Con from 1.37969e-006 to 1.38169e-006
Heightened Def Con from 1.38169e-006 to 1.38869e-006
Heightened Def Con from 1.39625e-006 to 1.40225e-006
Heightened Def Con from 1.40609e-006 to 1.41209e-006
Heightened Def Con from 1.41626e-006 to 1.41664e-006
Heightened Def Con from 1.41671e-006 to 1.42271e-006
Heightened Def Con from 1.42811e-006 to 1.43511e-006
Heightened Def Con from 1.43874e-006 to 1.44474e-006
Heightened Def Con from 1.45071e-006 to 1.45971e-006
Heightened Def Con from 1.46194e-006 to 1.46994e-006
Heightened Def Con from 1.47205e-006 to 1.47905e-006
Heightened Def Con from 1.48086e-006 to 1.48186e-006
Heightened Def Con from 1.48186e-006 to 1.48211e-006
Heightened Def Con from 1.48212e-006 to 1.49224e-006
Heightened Def Con from 1.49299e-006 to 1.50099e-006
Heightened Def Con from 1.50193e-006 to 1.50231e-006
Heightened Def Con from 1.50249e-006 to 1.50849e-006
Heightened Def Con from 1.5103e-006 to 1.51943e-006
Heightened Def Con from 1.52006e-006 to 1.52718e-006
Heightened Def Con from 1.52829e-006 to 1.52929e-006
Heightened Def Con from 1.52929e-006 to 1.53279e-006
Heightened Def Con from 1.56008e-006 to 1.56058e-006
Heightened Def Con from 1.56058e-006 to 1.56458e-006
Heightened Def Con from 1.56942e-006 to 1.57292e-006
Heightened Def Con from 1.57564e-006 to 1.57976e-006
Heightened Def Con from 1.58048e-006 to 1.58648e-006
Heightened Def Con from 1.58854e-006 to 1.59554e-006
Heightened Def Con from 1.61621e-006 to 1.62321e-006
Heightened Def Con from 1.62751e-006 to 1.63351e-006
Heightened Def Con from 1.66628e-006 to 1.67528e-006
Heightened Def Con from 1.67614e-006 to 1.68214e-006
Heightened Def Con from 1.68371e-006 to 1.68971e-006
Heightened Def Con from 1.694e-006 to 1.69413e-006
Heightened Def Con from 1.69414e-006 to 1.70014e-006
Heightened Def Con from 1.71167e-006 to 1.71767e-006
Heightened Def Con from 1.72389e-006 to 1.73089e-006
Heightened Def Con from 1.73407e-006 to 1.73507e-006
Heightened Def Con from 1.73507e-006 to 1.74307e-006
Heightened Def Con from 1.77857e-006 to 1.7797e-006
Heightened Def Con from 1.77975e-006 to 1.78e-006
Heightened Def Con from 1.78001e-006 to 1.78813e-006
Heightened Def Con from 1.7891e-006 to 1.7926e-006
Heightened Def Con from 1.7928e-006 to 1.79308e-006
Heightened Def Con from 1.79336e-006 to 1.80036e-006
Heightened Def Con from 1.81388e-006 to 1.81988e-006
Heightened Def Con from 1.82895e-006 to 1.83495e-006
Heightened Def Con from 1.83992e-006 to 1.84029e-006
Heightened Def Con from 1.84036e-006 to 1.84636e-006
Heightened Def Con from 1.85318e-006 to 1.85918e-006
Heightened Def Con from 1.86786e-006 to 1.87486e-006
Heightened Def Con from 1.8808e-006 to 1.8868e-006
Heightened Def Con from 1.89143e-006 to 1.89243e-006
Heightened Def Con from 1.89246e-006 to 1.89946e-006
Heightened Def Con from 1.90238e-006 to 1.90838e-006
Heightened Def Con from 1.91352e-006 to 1.92365e-006
Heightened Def Con from 1.92521e-006 to 1.93321e-006
Heightened Def Con from 1.93648e-006 to 1.93748e-006
Heightened Def Con from 1.93748e-006 to 1.94098e-006
Heightened Def Con from 1.96116e-006 to 1.96466e-006
Heightened Def Con from 1.97012e-006 to 1.97037e-006
Heightened Def Con from 1.97038e-006 to 1.97138e-006
Heightened Def Con from 1.97733e-006 to 1.98071e-006
Heightened Def Con from 1.98084e-006 to 1.98684e-006
Heightened Def Con from 2.01636e-006 to 2.02236e-006
Heightened Def Con from 2.0258e-006 to 2.0318e-006
Heightened Def Con from 2.03487e-006 to 2.04187e-006
Heightened Def Con from 2.0469e-006 to 2.0529e-006
Heightened Def Con from 2.06101e-006 to 2.06701e-006
Heightened Def Con from 2.07319e-006 to 2.07919e-006
Heightened Def Con from 2.08338e-006 to 2.08938e-006
Heightened Def Con from 2.09194e-006 to 2.09294e-006
Heightened Def Con from 2.09295e-006 to 2.09645e-006
Heightened Def Con from 2.13129e-006 to 2.13479e-006
Heightened Def Con from 2.14035e-006 to 2.1406e-006
Heightened Def Con from 2.1406e-006 to 2.14673e-006
Heightened Def Con from 2.1478e-006 to 2.1538e-006
Heightened Def Con from 2.15436e-006 to 2.16136e-006
Heightened Def Con from 2.1731e-006 to 2.1741e-006
Heightened Def Con from 2.1741e-006 to 2.1811e-006
Heightened Def Con from 2.19114e-006 to 2.19251e-006
Heightened Def Con from 2.19264e-006 to 2.19864e-006
Heightened Def Con from 2.20377e-006 to 2.20977e-006
Heightened Def Con from 2.21365e-006 to 2.21965e-006
Heightened Def Con from 2.22556e-006 to 2.23156e-006
Heightened Def Con from 2.23646e-006 to 2.24246e-006
Heightened Def Con from 2.247e-006 to 2.253e-006
Heightened Def Con from 2.25558e-006 to 2.25658e-006
Heightened Def Con from 2.25658e-006 to 2.25683e-006
Heightened Def Con from 2.25683e-006 to 2.26283e-006
Heightened Def Con from 2.26869e-006 to 2.27782e-006
Heightened Def Con from 2.27862e-006 to 2.28575e-006
Heightened Def Con from 2.28716e-006 to 2.29516e-006
Heightened Def Con from 2.29663e-006 to 2.30475e-006
Heightened Def Con from 2.30624e-006 to 2.30724e-006
Heightened Def Con from 2.30724e-006 to 2.31074e-006
Heightened Def Con from 2.33691e-006 to 2.33804e-006
Heightened Def Con from 2.33827e-006 to 2.33877e-006
Heightened Def Con from 2.33877e-006 to 2.34277e-006
Heightened Def Con from 2.34754e-006 to 2.35104e-006
Heightened Def Con from 2.35381e-006 to 2.35806e-006
Heightened Def Con from 2.35862e-006 to 2.36462e-006
Heightened Def Con from 2.36545e-006 to 2.37245e-006
Heightened Def Con from 2.40428e-006 to 2.41028e-006
Heightened Def Con from 2.41471e-006 to 2.41571e-006
Heightened Def Con from 2.41571e-006 to 2.42096e-006
Heightened Def Con from 2.42107e-006 to 2.42707e-006
Heightened Def Con from 2.43228e-006 to 2.43278e-006
Heightened Def Con from 2.43288e-006 to 2.43888e-006
Heightened Def Con from 2.44404e-006 to 2.45004e-006
Heightened Def Con from 2.4554e-006 to 2.4614e-006
Heightened Def Con from 2.46596e-006 to 2.47196e-006
Heightened Def Con from 2.47435e-006 to 2.48035e-006
Heightened Def Con from 2.48556e-006 to 2.49556e-006
Heightened Def Con from 2.49657e-006 to 2.50557e-006
Heightened Def Con from 2.50696e-006 to 2.50833e-006
Heightened Def Con from 2.50845e-006 to 2.51195e-006
Heightened Def Con from 2.51931e-006 to 2.52631e-006
Heightened Def Con from 2.52897e-006 to 2.53022e-006
Heightened Def Con from 2.53029e-006 to 2.53379e-006
Heightened Def Con from 2.53827e-006 to 2.54177e-006
Heightened Def Con from 2.54548e-006 to 2.55361e-006
Heightened Def Con from 2.55412e-006 to 2.56025e-006
Heightened Def Con from 2.56091e-006 to 2.56791e-006
Heightened Def Con from 2.56941e-006 to 2.57541e-006
Heightened Def Con from 2.57752e-006 to 2.58552e-006
Heightened Def Con from 2.58774e-006 to 2.59787e-006
Heightened Def Con from 2.59884e-006 to 2.60021e-006
Heightened Def Con from 2.60046e-006 to 2.60646e-006
Heightened Def Con from 2.61141e-006 to 2.61953e-006
Heightened Def Con from 2.62051e-006 to 2.62151e-006
Heightened Def Con from 2.62151e-006 to 2.62176e-006
Heightened Def Con from 2.62177e-006 to 2.62527e-006
Heightened Def Con from 2.65952e-006 to 2.66002e-006
Heightened Def Con from 2.66002e-006 to 2.66802e-006
Heightened Def Con from 2.66904e-006 to 2.67117e-006
Heightened Def Con from 2.67121e-006 to 2.67321e-006
Heightened Def Con from 2.67321e-006 to 2.67921e-006
Heightened Def Con from 2.68031e-006 to 2.68731e-006
Heightened Def Con from 2.71907e-006 to 2.72507e-006
Heightened Def Con from 2.7293e-006 to 2.72968e-006
Heightened Def Con from 2.72975e-006 to 2.73575e-006
Heightened Def Con from 2.73842e-006 to 2.74442e-006
Heightened Def Con from 2.75057e-006 to 2.75657e-006
Heightened Def Con from 2.76146e-006 to 2.76746e-006
Heightened Def Con from 2.7704e-006 to 2.7764e-006
Heightened Def Con from 2.78047e-006 to 2.7866e-006
Heightened Def Con from 2.78763e-006 to 2.78876e-006
Heightened Def Con from 2.78886e-006 to 2.79486e-006
Heightened Def Con from 2.80075e-006 to 2.80775e-006
Heightened Def Con from 2.81199e-006 to 2.82099e-006
Heightened Def Con from 2.82206e-006 to 2.82306e-006
Heightened Def Con from 2.82306e-006 to 2.82331e-006
Heightened Def Con from 2.82332e-006 to 2.83244e-006
Heightened Def Con from 2.83375e-006 to 2.83725e-006
Heightened Def Con from 2.8417e-006 to 2.8497e-006
Heightened Def Con from 2.85043e-006 to 2.85093e-006
Heightened Def Con from 2.85112e-006 to 2.85212e-006
Heightened Def Con from 2.85213e-006 to 2.85275e-006
Heightened Def Con from 2.85276e-006 to 2.85376e-006
Heightened Def Con from 2.85376e-006 to 2.85726e-006
Heightened Def Con from 2.87003e-006 to 2.87703e-006
Heightened Def Con from 2.87971e-006 to 2.88583e-006
Heightened Def Con from 2.88658e-006 to 2.89258e-006
Heightened Def Con from 2.89417e-006 to 2.90017e-006
Heightened Def Con from 2.91333e-006 to 2.91433e-006
Heightened Def Con from 2.91433e-006 to 2.91633e-006
Heightened Def Con from 2.91634e-006 to 2.92234e-006
Heightened Def Con from 2.92913e-006 to 2.93525e-006
Heightened Def Con from 2.9364e-006 to 2.94353e-006
Heightened Def Con from 2.94453e-006 to 2.95053e-006
Heightened Def Con from 2.95316e-006 to 2.96216e-006
Heightened Def Con from 2.96344e-006 to 2.96944e-006
Heightened Def Con from 2.97503e-006 to 2.98203e-006
Heightened Def Con from 2.98659e-006 to 2.99459e-006
Heightened Def Con from 2.99584e-006 to 3.00384e-006
Heightened Def Con from 3.0064e-006 to 3.0154e-006
Heightened Def Con from 3.01633e-006 to 3.02433e-006
Heightened Def Con from 3.0253e-006 to 3.0323e-006
Heightened Def Con from 3.03447e-006 to 3.0426e-006
Heightened Def Con from 3.04394e-006 to 3.05106e-006
Heightened Def Con from 3.05244e-006 to 3.05356e-006
Heightened Def Con from 3.0538e-006 to 3.0608e-006
Heightened Def Con from 3.06433e-006 to 3.06533e-006
Heightened Def Con from 3.06534e-006 to 3.06596e-006
Heightened Def Con from 3.06597e-006 to 3.06697e-006
Heightened Def Con from 3.06697e-006 to 3.07047e-006
Heightened Def Con from 3.08337e-006 to 3.08362e-006
Heightened Def Con from 3.08362e-006 to 3.09175e-006
Heightened Def Con from 3.09307e-006 to 3.09407e-006
Heightened Def Con from 3.09408e-006 to 3.09433e-006
Heightened Def Con from 3.09433e-006 to 3.09783e-006
Heightened Def Con from 3.09799e-006 to 3.10399e-006
Heightened Def Con from 3.10809e-006 to 3.11409e-006
Heightened Def Con from 3.14648e-006 to 3.15448e-006
Heightened Def Con from 3.15612e-006 to 3.15962e-006
Heightened Def Con from 3.16123e-006 to 3.16823e-006
Heightened Def Con from 3.16874e-006 to 3.17474e-006
Heightened Def Con from 3.18113e-006 to 3.18413e-006
Heightened Def Con from 3.18453e-006 to 3.18503e-006
Heightened Def Con from 3.1885e-006 to 3.1895e-006
Heightened Def Con from 3.1895e-006 to 3.1915e-006
Heightened Def Con from 3.19151e-006 to 3.19751e-006
Heightened Def Con from 3.20346e-006 to 3.20959e-006
Heightened Def Con from 3.21004e-006 to 3.21604e-006
Heightened Def Con from 3.21735e-006 to 3.22335e-006
Heightened Def Con from 3.22606e-006 to 3.22706e-006
Heightened Def Con from 3.22706e-006 to 3.23406e-006
Heightened Def Con from 3.26366e-006 to 3.26416e-006
Heightened Def Con from 3.26416e-006 to 3.26816e-006
Heightened Def Con from 3.27269e-006 to 3.27294e-006
Heightened Def Con from 3.27294e-006 to 3.27907e-006
Heightened Def Con from 3.28012e-006 to 3.28062e-006
Heightened Def Con from 3.28073e-006 to 3.28585e-006
Heightened Def Con from 3.2859e-006 to 3.2929e-006
Heightened Def Con from 3.30008e-006 to 3.30408e-006
Heightened Def Con from 3.3247e-006 to 3.32582e-006
Heightened Def Con from 3.32605e-006 to 3.33205e-006
Heightened Def Con from 3.33626e-006 to 3.34226e-006
Heightened Def Con from 3.34355e-006 to 3.34955e-006
Heightened Def Con from 3.35501e-006 to 3.36101e-006
Heightened Def Con from 3.36753e-006 to 3.36803e-006
Heightened Def Con from 3.36842e-006 to 3.36942e-006
Heightened Def Con from 3.36942e-006 to 3.36967e-006
Heightened Def Con from 3.36968e-006 to 3.37768e-006
Heightened Def Con from 3.38359e-006 to 3.38472e-006
Heightened Def Con from 3.3848e-006 to 3.3908e-006
Heightened Def Con from 3.39507e-006 to 3.40107e-006
Heightened Def Con from 3.40396e-006 to 3.41109e-006
Heightened Def Con from 3.41206e-006 to 3.42106e-006
Heightened Def Con from 3.42196e-006 to 3.42246e-006
Heightened Def Con from 3.42257e-006 to 3.42957e-006
Heightened Def Con from 3.43238e-006 to 3.43838e-006
Heightened Def Con from 3.44397e-006 to 3.45297e-006
Heightened Def Con from 3.45608e-006 to 3.46208e-006
Heightened Def Con from 3.46583e-006 to 3.46933e-006
Heightened Def Con from 3.47441e-006 to 3.48141e-006
Heightened Def Con from 3.48321e-006 to 3.48671e-006
Heightened Def Con from 3.4901e-006 to 3.4961e-006
Heightened Def Con from 3.49781e-006 to 3.50594e-006
Heightened Def Con from 3.50687e-006 to 3.514e-006
Heightened Def Con from 3.51517e-006 to 3.5163e-006
Heightened Def Con from 3.51646e-006 to 3.52559e-006
Heightened Def Con from 3.52661e-006 to 3.53474e-006
Heightened Def Con from 3.53601e-006 to 3.53638e-006
Heightened Def Con from 3.53652e-006 to 3.54464e-006
Heightened Def Con from 3.54582e-006 to 3.54695e-006
Heightened Def Con from 3.54727e-006 to 3.5564e-006
Heightened Def Con from 3.55769e-006 to 3.56582e-006
Heightened Def Con from 3.56715e-006 to 3.57315e-006
Heightened Def Con from 3.57614e-006 to 3.57714e-006
Heightened Def Con from 3.57714e-006 to 3.57739e-006
Heightened Def Con from 3.57739e-006 to 3.58339e-006
Heightened Def Con from 3.58928e-006 to 3.59528e-006
Heightened Def Con from 3.5993e-006 to 3.59967e-006
Heightened Def Con from 3.59987e-006 to 3.607e-006
Heightened Def Con from 3.60761e-006 to 3.60873e-006
Heightened Def Con from 3.60906e-006 to 3.61706e-006
Heightened Def Con from 3.62009e-006 to 3.62609e-006
Heightened Def Con from 3.63027e-006 to 3.63077e-006
Heightened Def Con from 3.631e-006 to 3.632e-006
Heightened Def Con from 3.632e-006 to 3.63225e-006
Heightened Def Con from 3.63226e-006 to 3.63576e-006
Heightened Def Con from 3.64856e-006 to 3.65156e-006
Heightened Def Con from 3.66956e-006 to 3.66981e-006
Heightened Def Con from 3.66981e-006 to 3.67681e-006
Heightened Def Con from 3.67864e-006 to 3.68214e-006
Heightened Def Con from 3.68251e-006 to 3.68351e-006
Heightened Def Con from 3.68351e-006 to 3.68376e-006
Heightened Def Con from 3.68377e-006 to 3.69077e-006
Heightened Def Con from 3.691e-006 to 3.69413e-006
Heightened Def Con from 3.69419e-006 to 3.70119e-006
Heightened Def Con from 3.73383e-006 to 3.73983e-006
Heightened Def Con from 3.74339e-006 to 3.74939e-006
Heightened Def Con from 3.75259e-006 to 3.75859e-006
Heightened Def Con from 3.76595e-006 to 3.77195e-006
Heightened Def Con from 3.7802e-006 to 3.78032e-006
Heightened Def Con from 3.78033e-006 to 3.78633e-006
Heightened Def Con from 3.79338e-006 to 3.79451e-006
Heightened Def Con from 3.79474e-006 to 3.80174e-006
Heightened Def Con from 3.80656e-006 to 3.81569e-006
Heightened Def Con from 3.81654e-006 to 3.81692e-006
Heightened Def Con from 3.81703e-006 to 3.82403e-006
Heightened Def Con from 3.82527e-006 to 3.8344e-006
Heightened Def Con from 3.83537e-006 to 3.8365e-006
Heightened Def Con from 3.83675e-006 to 3.84475e-006
Heightened Def Con from 3.84698e-006 to 3.8561e-006
Heightened Def Con from 3.85675e-006 to 3.86287e-006
Heightened Def Con from 3.86425e-006 to 3.87338e-006
Heightened Def Con from 3.87388e-006 to 3.875e-006
Heightened Def Con from 3.87505e-006 to 3.88418e-006
Heightened Def Con from 3.88483e-006 to 3.89195e-006
Heightened Def Con from 3.89352e-006 to 3.90152e-006
Heightened Def Con from 3.90422e-006 to 3.91122e-006
Heightened Def Con from 3.91442e-006 to 3.92142e-006
Heightened Def Con from 3.92319e-006 to 3.92919e-006
Heightened Def Con from 3.931e-006 to 3.93913e-006
Heightened Def Con from 3.93987e-006 to 3.947e-006
Heightened Def Con from 3.94808e-006 to 3.95621e-006
Heightened Def Con from 3.95684e-006 to 3.96497e-006
Heightened Def Con from 3.96573e-006 to 3.96711e-006
Heightened Def Con from 3.96725e-006 to 3.97325e-006
Heightened Def Con from 3.97896e-006 to 3.98496e-006
Heightened Def Con from 3.98981e-006 to 3.99581e-006
Heightened Def Con from 3.99715e-006 to 4.00628e-006
Heightened Def Con from 4.00713e-006 to 4.01313e-006
Heightened Def Con from 4.01523e-006 to 4.01661e-006
Heightened Def Con from 4.01684e-006 to 4.01822e-006
Heightened Def Con from 4.01912e-006 to 4.02712e-006
Heightened Def Con from 4.0297e-006 to 4.03683e-006
Heightened Def Con from 4.03807e-006 to 4.0452e-006
Heightened Def Con from 4.04664e-006 to 4.04701e-006
Heightened Def Con from 4.04714e-006 to 4.05327e-006
Heightened Def Con from 4.05425e-006 to 4.06237e-006
Heightened Def Con from 4.06344e-006 to 4.06444e-006
Heightened Def Con from 4.06444e-006 to 4.06469e-006
Heightened Def Con from 4.06469e-006 to 4.07469e-006
Heightened Def Con from 4.07683e-006 to 4.0782e-006
Heightened Def Con from 4.07837e-006 to 4.08749e-006
Heightened Def Con from 4.08845e-006 to 4.08882e-006
Heightened Def Con from 4.08913e-006 to 4.08963e-006
Heightened Def Con from 4.08973e-006 to 4.09573e-006
Heightened Def Con from 4.09754e-006 to 4.10454e-006
Heightened Def Con from 4.10702e-006 to 4.10752e-006
Heightened Def Con from 4.1077e-006 to 4.10807e-006
Heightened Def Con from 4.10818e-006 to 4.11418e-006
Heightened Def Con from 4.11657e-006 to 4.11694e-006
Heightened Def Con from 4.11708e-006 to 4.12308e-006
Heightened Def Con from 4.1259e-006 to 4.1319e-006
Heightened Def Con from 4.13643e-006 to 4.14643e-006
Heightened Def Con from 4.14803e-006 to 4.15403e-006
Heightened Def Con from 4.15841e-006 to 4.16453e-006
Heightened Def Con from 4.16572e-006 to 4.16685e-006
Heightened Def Con from 4.16709e-006 to 4.17609e-006
Heightened Def Con from 4.17723e-006 to 4.18535e-006
Heightened Def Con from 4.18666e-006 to 4.19366e-006
Heightened Def Con from 4.19611e-006 to 4.20524e-006
Heightened Def Con from 4.20588e-006 to 4.21401e-006
Heightened Def Con from 4.21462e-006 to 4.22075e-006
Heightened Def Con from 4.22216e-006 to 4.23028e-006
Heightened Def Con from 4.23137e-006 to 4.24062e-006
Heightened Def Con from 4.24123e-006 to 4.25023e-006
Heightened Def Con from 4.25126e-006 to 4.25263e-006
Heightened Def Con from 4.25295e-006 to 4.25895e-006
Heightened Def Con from 4.26329e-006 to 4.27041e-006
Heightened Def Con from 4.27138e-006 to 4.27276e-006
Heightened Def Con from 4.27294e-006 to 4.28207e-006
Heightened Def Con from 4.28318e-006 to 4.29118e-006
Heightened Def Con from 4.29278e-006 to 4.30091e-006
Heightened Def Con from 4.30199e-006 to 4.30312e-006
Heightened Def Con from 4.30319e-006 to 4.31231e-006
Heightened Def Con from 4.31304e-006 to 4.32004e-006
Heightened Def Con from 4.32073e-006 to 4.32673e-006
Heightened Def Con from 4.33015e-006 to 4.33715e-006
Heightened Def Con from 4.33862e-006 to 4.34462e-006
Heightened Def Con from 4.34696e-006 to 4.35596e-006
Heightened Def Con from 4.35766e-006 to 4.35879e-006
Heightened Def Con from 4.35887e-006 to 4.37e-006
Heightened Def Con from 4.37071e-006 to 4.38071e-006
Heightened Def Con from 4.38157e-006 to 4.38957e-006
Heightened Def Con from 4.3915e-006 to 4.3985e-006
Heightened Def Con from 4.40037e-006 to 4.4085e-006
Heightened Def Con from 4.40974e-006 to 4.41686e-006
Heightened Def Con from 4.41828e-006 to 4.41866e-006
Heightened Def Con from 4.41879e-006 to 4.42579e-006
Heightened Def Con from 4.42742e-006 to 4.43642e-006
Heightened Def Con from 4.4374e-006 to 4.4464e-006
Heightened Def Con from 4.44708e-006 to 4.44821e-006
Heightened Def Con from 4.44834e-006 to 4.45634e-006
Heightened Def Con from 4.45748e-006 to 4.4656e-006
Heightened Def Con from 4.46676e-006 to 4.46789e-006
Heightened Def Con from 4.46818e-006 to 4.47618e-006
Heightened Def Con from 4.47855e-006 to 4.48455e-006
Heightened Def Con from 4.48744e-006 to 4.49444e-006
Heightened Def Con from 4.49633e-006 to 4.50233e-006
Heightened Def Con from 4.50529e-006 to 4.50629e-006
Heightened Def Con from 4.50629e-006 to 4.50654e-006
Heightened Def Con from 4.50655e-006 to 4.51555e-006
Heightened Def Con from 4.51832e-006 to 4.52432e-006
Heightened Def Con from 4.52853e-006 to 4.53553e-006
Heightened Def Con from 4.53643e-006 to 4.54243e-006
Heightened Def Con from 4.54542e-006 to 4.55142e-006
Heightened Def Con from 4.55511e-006 to 4.55649e-006
Heightened Def Con from 4.55678e-006 to 4.56278e-006
Heightened Def Con from 4.56886e-006 to 4.56999e-006
Heightened Def Con from 4.57007e-006 to 4.57907e-006
Heightened Def Con from 4.58116e-006 to 4.58816e-006
Heightened Def Con from 4.59046e-006 to 4.59859e-006
Heightened Def Con from 4.59972e-006 to 4.60785e-006
Heightened Def Con from 4.60876e-006 to 4.60926e-006
Heightened Def Con from 4.60945e-006 to 4.60982e-006
Heightened Def Con from 4.60989e-006 to 4.61689e-006
Heightened Def Con from 4.61842e-006 to 4.62767e-006
Heightened Def Con from 4.62827e-006 to 4.63627e-006
Heightened Def Con from 4.6378e-006 to 4.64618e-006
Heightened Def Con from 4.64726e-006 to 4.65326e-006
Heightened Def Con from 4.65594e-006 to 4.66194e-006
Heightened Def Con from 4.66444e-006 to 4.67357e-006
Heightened Def Con from 4.67409e-006 to 4.68322e-006
Heightened Def Con from 4.68375e-006 to 4.69288e-006
Heightened Def Con from 4.69384e-006 to 4.69521e-006
Heightened Def Con from 4.69562e-006 to 4.70462e-006
Heightened Def Con from 4.7085e-006 to 4.7145e-006
Heightened Def Con from 4.71951e-006 to 4.72301e-006
Heightened Def Con from 4.72846e-006 to 4.73196e-006
Heightened Def Con from 4.7375e-006 to 4.741e-006
Heightened Def Con from 4.74468e-006 to 4.7518e-006
Heightened Def Con from 4.75243e-006 to 4.75755e-006
Heightened Def Con from 4.75858e-006 to 4.75971e-006
Heightened Def Con from 4.75976e-006 to 4.76776e-006
Heightened Def Con from 4.76912e-006 to 4.77712e-006
Heightened Def Con from 4.77904e-006 to 4.78004e-006
Heightened Def Con from 4.78005e-006 to 4.78355e-006
Heightened Def Con from 4.81601e-006 to 4.81801e-006
Heightened Def Con from 4.81802e-006 to 4.82614e-006
Heightened Def Con from 4.8267e-006 to 4.83383e-006
Heightened Def Con from 4.83385e-006 to 4.83985e-006
Heightened Def Con from 4.86039e-006 to 4.86739e-006
Heightened Def Con from 4.8991e-006 to 4.9051e-006
Heightened Def Con from 4.90901e-006 to 4.91601e-006
Heightened Def Con from 4.92104e-006 to 4.92804e-006
Heightened Def Con from 4.96092e-006 to 4.96992e-006
Heightened Def Con from 4.97077e-006 to 4.97689e-006
Heightened Def Con from 4.97718e-006 to 4.98318e-006
Heightened Def Con from 4.98534e-006 to 4.99134e-006
Heightened Def Con from 5.00047e-006 to 5.00247e-006
Heightened Def Con from 5.00249e-006 to 5.00349e-006
Heightened Def Con from 5.00349e-006 to 5.01049e-006
Heightened Def Con from 5.02064e-006 to 5.02764e-006
Heightened Def Con from 5.03031e-006 to 5.03069e-006
Heightened Def Con from 5.03082e-006 to 5.03782e-006
Heightened Def Con from 5.03936e-006 to 5.04536e-006
Heightened Def Con from 5.04799e-006 to 5.04837e-006
Heightened Def Con from 5.04864e-006 to 5.04964e-006
Heightened Def Con from 5.04964e-006 to 5.04989e-006
Heightened Def Con from 5.0499e-006 to 5.0569e-006
Heightened Def Con from 5.06136e-006 to 5.06736e-006
Heightened Def Con from 5.07178e-006 to 5.07778e-006
Heightened Def Con from 5.08004e-006 to 5.08604e-006
Heightened Def Con from 5.09098e-006 to 5.09698e-006
Heightened Def Con from 5.10183e-006 to 5.10783e-006
Heightened Def Con from 5.11204e-006 to 5.11316e-006
Heightened Def Con from 5.11339e-006 to 5.11376e-006
Heightened Def Con from 5.11383e-006 to 5.12183e-006
Heightened Def Con from 5.12583e-006 to 5.13483e-006
Heightened Def Con from 5.13661e-006 to 5.14386e-006
Heightened Def Con from 5.14484e-006 to 5.14597e-006
Heightened Def Con from 5.14607e-006 to 5.15419e-006
Heightened Def Con from 5.15538e-006 to 5.15638e-006
Heightened Def Con from 5.15638e-006 to 5.15988e-006
Heightened Def Con from 5.19234e-006 to 5.19584e-006
Heightened Def Con from 5.20117e-006 to 5.20467e-006
Heightened Def Con from 5.20729e-006 to 5.21442e-006
Heightened Def Con from 5.21446e-006 to 5.22146e-006
Heightened Def Con from 5.23454e-006 to 5.23555e-006
Heightened Def Con from 5.23555e-006 to 5.24255e-006
Heightened Def Con from 5.25557e-006 to 5.26157e-006
Heightened Def Con from 5.27026e-006 to 5.27626e-006
Heightened Def Con from 5.28692e-006 to 5.29392e-006
Heightened Def Con from 5.29917e-006 to 5.30517e-006
Heightened Def Con from 5.31047e-006 to 5.31647e-006
Heightened Def Con from 5.3225e-006 to 5.3285e-006
Heightened Def Con from 5.33378e-006 to 5.34078e-006
Heightened Def Con from 5.3435e-006 to 5.3515e-006
Heightened Def Con from 5.35417e-006 to 5.36317e-006
Heightened Def Con from 5.3646e-006 to 5.36598e-006
Heightened Def Con from 5.36627e-006 to 5.37227e-006
Heightened Def Con from 5.37837e-006 to 5.37949e-006
Heightened Def Con from 5.37957e-006 to 5.38307e-006
Heightened Def Con from 5.38962e-006 to 5.39312e-006
Heightened Def Con from 5.39651e-006 to 5.39764e-006
Heightened Def Con from 5.39786e-006 to 5.39811e-006
Heightened Def Con from 5.39811e-006 to 5.40411e-006
Heightened Def Con from 5.40731e-006 to 5.40768e-006
Heightened Def Con from 5.40787e-006 to 5.40824e-006
Heightened Def Con from 5.40832e-006 to 5.41157e-006
Heightened Def Con from 5.412e-006 to 5.418e-006
Heightened Def Con from 5.42002e-006 to 5.42602e-006
Heightened Def Con from 5.42867e-006 to 5.43467e-006
Heightened Def Con from 5.43898e-006 to 5.44798e-006
Heightened Def Con from 5.45098e-006 to 5.45236e-006
Heightened Def Con from 5.45265e-006 to 5.45965e-006
Heightened Def Con from 5.46378e-006 to 5.46478e-006
Heightened Def Con from 5.46478e-006 to 5.46828e-006
Heightened Def Con from 5.46847e-006 to 5.46959e-006
Heightened Def Con from 5.46982e-006 to 5.47332e-006
Heightened Def Con from 5.48053e-006 to 5.48403e-006
Heightened Def Con from 5.48669e-006 to 5.49269e-006
Heightened Def Con from 5.49355e-006 to 5.49867e-006
Heightened Def Con from 5.50024e-006 to 5.50837e-006
Heightened Def Con from 5.50873e-006 to 5.51473e-006
Heightened Def Con from 5.51809e-006 to 5.52409e-006
Heightened Def Con from 5.52893e-006 to 5.53493e-006
Heightened Def Con from 5.54083e-006 to 5.54683e-006
Heightened Def Con from 5.55131e-006 to 5.55168e-006
Heightened Def Con from 5.55208e-006 to 5.56021e-006
Heightened Def Con from 5.56083e-006 to 5.56195e-006
Heightened Def Con from 5.56217e-006 to 5.57017e-006
Heightened Def Con from 5.57234e-006 to 5.58046e-006
Heightened Def Con from 5.58182e-006 to 5.58882e-006
Heightened Def Con from 5.59086e-006 to 5.59886e-006
Heightened Def Con from 5.60011e-006 to 5.60123e-006
Heightened Def Con from 5.60149e-006 to 5.60499e-006
Heightened Def Con from 5.61092e-006 to 5.61792e-006
Heightened Def Con from 5.62e-006 to 5.62612e-006
Heightened Def Con from 5.62756e-006 to 5.62894e-006
Heightened Def Con from 5.62906e-006 to 5.63606e-006
Heightened Def Con from 5.63801e-006 to 5.64613e-006
Heightened Def Con from 5.64725e-006 to 5.64837e-006
Heightened Def Con from 5.6485e-006 to 5.6545e-006
Heightened Def Con from 5.65822e-006 to 5.6586e-006
Heightened Def Con from 5.65888e-006 to 5.65988e-006
Heightened Def Con from 5.65988e-006 to 5.66301e-006
Heightened Def Con from 5.66303e-006 to 5.67103e-006
Heightened Def Con from 5.67689e-006 to 5.67789e-006
Heightened Def Con from 5.6779e-006 to 5.67852e-006
Heightened Def Con from 5.67853e-006 to 5.67953e-006
Heightened Def Con from 5.67953e-006 to 5.67978e-006
Heightened Def Con from 5.67979e-006 to 5.68879e-006
Heightened Def Con from 5.69189e-006 to 5.69289e-006
Heightened Def Con from 5.69289e-006 to 5.69351e-006
Heightened Def Con from 5.69352e-006 to 5.69453e-006
Heightened Def Con from 5.69453e-006 to 5.69478e-006
Heightened Def Con from 5.69478e-006 to 5.70078e-006
Heightened Def Con from 5.70498e-006 to 5.70548e-006
Heightened Def Con from 5.70566e-006 to 5.70616e-006
Heightened Def Con from 5.70627e-006 to 5.71227e-006
Heightened Def Con from 5.71321e-006 to 5.71921e-006
Heightened Def Con from 5.7259e-006 to 5.7319e-006
Heightened Def Con from 5.73963e-006 to 5.74563e-006
Heightened Def Con from 5.75104e-006 to 5.75704e-006
Heightened Def Con from 5.76189e-006 to 5.76789e-006
Heightened Def Con from 5.77136e-006 to 5.77736e-006
Heightened Def Con from 5.78219e-006 to 5.79132e-006
Heightened Def Con from 5.79262e-006 to 5.79374e-006
Heightened Def Con from 5.79397e-006 to 5.80397e-006
Heightened Def Con from 5.80529e-006 to 5.81129e-006
Heightened Def Con from 5.81407e-006 to 5.82107e-006
Heightened Def Con from 5.82404e-006 to 5.82754e-006
Heightened Def Con from 5.83204e-006 to 5.83554e-006
Heightened Def Con from 5.84006e-006 to 5.84143e-006
Heightened Def Con from 5.84158e-006 to 5.84196e-006
Heightened Def Con from 5.84203e-006 to 5.85116e-006
Heightened Def Con from 5.8518e-006 to 5.8598e-006
Heightened Def Con from 5.86088e-006 to 5.86788e-006
Heightened Def Con from 5.86897e-006 to 5.87497e-006
Heightened Def Con from 5.87736e-006 to 5.87774e-006
Heightened Def Con from 5.87794e-006 to 5.88407e-006
Heightened Def Con from 5.88468e-006 to 5.8858e-006
Heightened Def Con from 5.8859e-006 to 5.89602e-006
Heightened Def Con from 5.89639e-006 to 5.89677e-006
Heightened Def Con from 5.89688e-006 to 5.90288e-006
Heightened Def Con from 5.90587e-006 to 5.916e-006
Heightened Def Con from 5.91674e-006 to 5.92274e-006
Heightened Def Con from 5.92663e-006 to 5.93263e-006
Heightened Def Con from 5.93576e-006 to 5.94176e-006
Heightened Def Con from 5.94425e-006 to 5.95125e-006
Heightened Def Con from 5.95425e-006 to 5.96325e-006
Heightened Def Con from 5.96473e-006 to 5.97373e-006
Heightened Def Con from 5.97526e-006 to 5.97626e-006
Heightened Def Con from 5.97626e-006 to 5.97651e-006
Heightened Def Con from 5.97652e-006 to 5.98002e-006
Heightened Def Con from 5.9904e-006 to 5.99065e-006
Heightened Def Con from 5.99065e-006 to 5.99965e-006
Heightened Def Con from 6.0007e-006 to 6.00583e-006
Heightened Def Con from 6.00659e-006 to 6.01172e-006
Heightened Def Con from 6.01247e-006 to 6.01847e-006
Heightened Def Con from 6.021e-006 to 6.027e-006
Heightened Def Con from 6.02814e-006 to 6.03714e-006
Heightened Def Con from 6.03813e-006 to 6.04513e-006
Heightened Def Con from 6.04808e-006 to 6.04921e-006
Heightened Def Con from 6.04927e-006 to 6.04977e-006
Heightened Def Con from 6.04991e-006 to 6.05041e-006
Heightened Def Con from 6.05058e-006 to 6.05858e-006
Heightened Def Con from 6.06473e-006 to 6.06823e-006
Heightened Def Con from 6.07577e-006 to 6.07927e-006
Heightened Def Con from 6.08472e-006 to 6.08522e-006
Heightened Def Con from 6.0854e-006 to 6.0864e-006
Heightened Def Con from 6.08643e-006 to 6.08668e-006
Heightened Def Con from 6.08668e-006 to 6.09268e-006
Heightened Def Con from 6.09586e-006 to 6.09923e-006
Heightened Def Con from 6.09968e-006 to 6.10568e-006
Heightened Def Con from 6.10744e-006 to 6.11344e-006
Heightened Def Con from 6.11797e-006 to 6.12009e-006
Heightened Def Con from 6.12014e-006 to 6.12614e-006
Heightened Def Con from 6.1348e-006 to 6.1408e-006
Heightened Def Con from 6.14601e-006 to 6.15201e-006
Heightened Def Con from 6.15478e-006 to 6.1639e-006
Heightened Def Con from 6.16457e-006 to 6.16807e-006
Heightened Def Con from 6.17278e-006 to 6.1764e-006
Heightened Def Con from 6.18106e-006 to 6.18206e-006
Heightened Def Con from 6.18206e-006 to 6.18231e-006
Heightened Def Con from 6.18232e-006 to 6.19032e-006
Heightened Def Con from 6.19263e-006 to 6.19963e-006
Heightened Def Con from 6.20057e-006 to 6.2087e-006
Heightened Def Con from 6.20933e-006 to 6.21745e-006
Heightened Def Con from 6.21797e-006 to 6.22397e-006
Heightened Def Con from 6.22591e-006 to 6.23391e-006
Heightened Def Con from 6.23599e-006 to 6.23699e-006
Heightened Def Con from 6.23699e-006 to 6.24049e-006
Heightened Def Con from 6.27579e-006 to 6.27604e-006
Heightened Def Con from 6.27604e-006 to 6.28404e-006
Heightened Def Con from 6.28532e-006 to 6.28882e-006
Heightened Def Con from 6.289e-006 to 6.295e-006
Heightened Def Con from 6.29562e-006 to 6.30262e-006
Heightened Def Con from 6.33471e-006 to 6.33609e-006
Heightened Def Con from 6.33672e-006 to 6.33772e-006
Heightened Def Con from 6.33772e-006 to 6.33797e-006
Heightened Def Con from 6.33798e-006 to 6.34498e-006
Heightened Def Con from 6.34947e-006 to 6.3556e-006
Heightened Def Con from 6.3558e-006 to 6.3628e-006
Heightened Def Con from 6.36908e-006 to 6.37608e-006
Heightened Def Con from 6.38527e-006 to 6.3864e-006
Heightened Def Con from 6.38662e-006 to 6.39262e-006
Heightened Def Con from 6.39722e-006 to 6.40322e-006
Heightened Def Con from 6.40572e-006 to 6.40685e-006
Heightened Def Con from 6.40697e-006 to 6.41497e-006
Heightened Def Con from 6.41709e-006 to 6.42309e-006
Heightened Def Con from 6.42578e-006 to 6.4269e-006
Heightened Def Con from 6.42698e-006 to 6.4371e-006
Heightened Def Con from 6.43771e-006 to 6.44371e-006
Heightened Def Con from 6.44699e-006 to 6.45512e-006
Heightened Def Con from 6.4566e-006 to 6.46572e-006
Heightened Def Con from 6.46635e-006 to 6.47447e-006
Heightened Def Con from 6.47556e-006 to 6.47669e-006
Heightened Def Con from 6.47678e-006 to 6.48578e-006
Heightened Def Con from 6.48738e-006 to 6.49538e-006
Heightened Def Con from 6.49824e-006 to 6.50737e-006
Heightened Def Con from 6.50849e-006 to 6.50961e-006
Heightened Def Con from 6.50966e-006 to 6.51566e-006
Heightened Def Con from 6.51884e-006 to 6.52697e-006
Heightened Def Con from 6.52794e-006 to 6.52931e-006
Heightened Def Con from 6.52944e-006 to 6.53744e-006
Heightened Def Con from 6.53936e-006 to 6.54649e-006
Heightened Def Con from 6.54798e-006 to 6.5561e-006
Heightened Def Con from 6.55675e-006 to 6.56488e-006
Heightened Def Con from 6.56562e-006 to 6.57162e-006
Heightened Def Con from 6.57438e-006 to 6.58038e-006
Heightened Def Con from 6.5825e-006 to 6.5885e-006
Heightened Def Con from 6.59246e-006 to 6.59846e-006
Heightened Def Con from 6.60154e-006 to 6.60854e-006
Heightened Def Con from 6.6126e-006 to 6.6206e-006
Heightened Def Con from 6.62246e-006 to 6.62596e-006
Heightened Def Con from 6.6331e-006 to 6.6366e-006
Heightened Def Con from 6.64322e-006 to 6.64672e-006
Heightened Def Con from 6.65162e-006 to 6.65512e-006
Heightened Def Con from 6.65871e-006 to 6.66221e-006
Heightened Def Con from 6.66436e-006 to 6.67036e-006
Heightened Def Con from 6.67226e-006 to 6.67926e-006
Heightened Def Con from 6.68012e-006 to 6.68612e-006
Heightened Def Con from 6.68897e-006 to 6.68934e-006
Heightened Def Con from 6.6894e-006 to 6.69552e-006
Heightened Def Con from 6.69631e-006 to 6.70544e-006
Heightened Def Con from 6.70618e-006 to 6.70755e-006
Heightened Def Con from 6.70793e-006 to 6.70831e-006
Heightened Def Con from 6.70838e-006 to 6.71738e-006
Heightened Def Con from 6.71985e-006 to 6.72785e-006
Heightened Def Con from 6.73012e-006 to 6.73812e-006
Heightened Def Con from 6.73944e-006 to 6.74757e-006
Heightened Def Con from 6.74802e-006 to 6.75615e-006
Heightened Def Con from 6.75674e-006 to 6.76274e-006
Heightened Def Con from 6.76472e-006 to 6.77072e-006
Heightened Def Con from 6.77446e-006 to 6.77559e-006
Heightened Def Con from 6.77567e-006 to 6.78567e-006
Heightened Def Con from 6.78804e-006 to 6.79404e-006
Heightened Def Con from 6.79759e-006 to 6.80559e-006
Heightened Def Con from 6.80672e-006 to 6.81372e-006
Heightened Def Con from 6.81455e-006 to 6.82068e-006
Heightened Def Con from 6.82212e-006 to 6.83012e-006
Heightened Def Con from 6.83103e-006 to 6.83203e-006
Heightened Def Con from 6.83203e-006 to 6.83265e-006
Heightened Def Con from 6.83266e-006 to 6.83366e-006
Heightened Def Con from 6.83367e-006 to 6.83442e-006
Heightened Def Con from 6.83442e-006 to 6.83842e-006
Heightened Def Con from 6.85191e-006 to 6.85541e-006
Heightened Def Con from 6.86063e-006 to 6.86276e-006
Heightened Def Con from 6.86281e-006 to 6.86631e-006
Heightened Def Con from 6.8693e-006 to 6.87542e-006
Heightened Def Con from 6.87653e-006 to 6.87865e-006
Heightened Def Con from 6.87876e-006 to 6.88589e-006
Heightened Def Con from 6.88599e-006 to 6.89199e-006
Heightened Def Con from 6.92411e-006 to 6.93011e-006
Heightened Def Con from 6.93341e-006 to 6.93941e-006
Heightened Def Con from 6.94279e-006 to 6.94879e-006
Heightened Def Con from 6.98183e-006 to 6.98533e-006
Heightened Def Con from 6.99166e-006 to 6.99878e-006
Heightened Def Con from 6.99953e-006 to 7.00465e-006
Heightened Def Con from 7.00517e-006 to 7.00555e-006
Heightened Def Con from 7.00568e-006 to 7.01168e-006
Heightened Def Con from 7.01501e-006 to 7.02101e-006
Heightened Def Con from 7.03205e-006 to 7.03305e-006
Heightened Def Con from 7.03306e-006 to 7.04006e-006
Heightened Def Con from 7.05042e-006 to 7.05742e-006
Heightened Def Con from 7.0597e-006 to 7.0602e-006
Heightened Def Con from 7.06039e-006 to 7.06077e-006
Heightened Def Con from 7.06088e-006 to 7.069e-006
Heightened Def Con from 7.06975e-006 to 7.07687e-006
Heightened Def Con from 7.0775e-006 to 7.0835e-006
Heightened Def Con from 7.08501e-006 to 7.09101e-006
Heightened Def Con from 7.09616e-006 to 7.10216e-006
Heightened Def Con from 7.10854e-006 to 7.11454e-006
Heightened Def Con from 7.11919e-006 to 7.12631e-006
Heightened Def Con from 7.12706e-006 to 7.13618e-006
Heightened Def Con from 7.13725e-006 to 7.13863e-006
Heightened Def Con from 7.13883e-006 to 7.13933e-006
Heightened Def Con from 7.13944e-006 to 7.14544e-006
Heightened Def Con from 7.15e-006 to 7.15113e-006
Heightened Def Con from 7.1512e-006 to 7.1592e-006
Heightened Def Con from 7.16146e-006 to 7.16946e-006
Heightened Def Con from 7.17177e-006 to 7.17777e-006
Heightened Def Con from 7.18098e-006 to 7.18448e-006
Heightened Def Con from 7.18896e-006 to 7.19008e-006
Heightened Def Con from 7.19013e-006 to 7.19363e-006
Heightened Def Con from 7.19915e-006 to 7.20715e-006
Heightened Def Con from 7.20813e-006 to 7.21525e-006
Heightened Def Con from 7.2163e-006 to 7.21668e-006
Heightened Def Con from 7.21681e-006 to 7.22293e-006
Heightened Def Con from 7.22438e-006 to 7.23038e-006
Heightened Def Con from 7.23349e-006 to 7.23949e-006
Heightened Def Con from 7.24213e-006 to 7.25225e-006
Heightened Def Con from 7.25285e-006 to 7.25885e-006
Heightened Def Con from 7.26296e-006 to 7.27009e-006
Heightened Def Con from 7.27168e-006 to 7.28181e-006
Heightened Def Con from 7.28262e-006 to 7.28962e-006
Heightened Def Con from 7.2925e-006 to 7.3015e-006
Heightened Def Con from 7.30307e-006 to 7.30657e-006
Heightened Def Con from 7.31191e-006 to 7.31329e-006
Heightened Def Con from 7.31339e-006 to 7.31689e-006
Heightened Def Con from 7.32333e-006 to 7.32683e-006
Heightened Def Con from 7.33145e-006 to 7.33495e-006
Heightened Def Con from 7.33946e-006 to 7.34296e-006
Heightened Def Con from 7.3466e-006 to 7.3526e-006
Heightened Def Con from 7.35497e-006 to 7.35534e-006
Heightened Def Con from 7.35554e-006 to 7.36166e-006
Heightened Def Con from 7.36212e-006 to 7.36912e-006
Heightened Def Con from 7.37122e-006 to 7.37935e-006
Heightened Def Con from 7.38013e-006 to 7.38125e-006
Heightened Def Con from 7.38133e-006 to 7.38833e-006
Heightened Def Con from 7.39183e-006 to 7.3932e-006
Heightened Def Con from 7.3935e-006 to 7.3945e-006
Heightened Def Con from 7.3945e-006 to 7.39475e-006
Heightened Def Con from 7.39476e-006 to 7.40076e-006
Heightened Def Con from 7.40853e-006 to 7.41553e-006
Heightened Def Con from 7.41868e-006 to 7.42218e-006
Heightened Def Con from 7.42604e-006 to 7.42716e-006
Heightened Def Con from 7.42739e-006 to 7.43339e-006
Heightened Def Con from 7.43653e-006 to 7.44465e-006
Heightened Def Con from 7.44538e-006 to 7.45251e-006
Heightened Def Con from 7.4533e-006 to 7.4603e-006
Heightened Def Con from 7.4623e-006 to 7.4683e-006
Heightened Def Con from 7.47238e-006 to 7.47338e-006
Heightened Def Con from 7.47338e-006 to 7.48138e-006
Heightened Def Con from 7.5026e-006 to 7.5031e-006
Heightened Def Con from 7.50311e-006 to 7.50711e-006
Heightened Def Con from 7.51244e-006 to 7.51594e-006
Heightened Def Con from 7.51848e-006 to 7.51885e-006
Heightened Def Con from 7.51895e-006 to 7.52407e-006
Heightened Def Con from 7.52545e-006 to 7.53145e-006
Heightened Def Con from 7.53156e-006 to 7.53756e-006
Heightened Def Con from 7.56885e-006 to 7.57585e-006
Heightened Def Con from 7.57725e-006 to 7.57837e-006
Heightened Def Con from 7.5786e-006 to 7.5846e-006
Heightened Def Con from 7.58694e-006 to 7.59394e-006
Heightened Def Con from 7.59615e-006 to 7.59628e-006
Heightened Def Con from 7.59629e-006 to 7.60229e-006
Heightened Def Con from 7.63507e-006 to 7.63857e-006
Heightened Def Con from 7.64481e-006 to 7.64531e-006
Heightened Def Con from 7.64555e-006 to 7.64593e-006
Heightened Def Con from 7.646e-006 to 7.653e-006
Heightened Def Con from 7.6543e-006 to 7.65943e-006
Heightened Def Con from 7.66005e-006 to 7.66043e-006
Heightened Def Con from 7.66056e-006 to 7.66856e-006
Heightened Def Con from 7.67147e-006 to 7.67747e-006
Heightened Def Con from 7.71196e-006 to 7.71546e-006
Heightened Def Con from 7.72179e-006 to 7.72529e-006
Heightened Def Con from 7.72851e-006 to 7.72889e-006
Heightened Def Con from 7.7291e-006 to 7.73522e-006
Heightened Def Con from 7.73585e-006 to 7.74185e-006
Heightened Def Con from 7.74432e-006 to 7.75032e-006
Heightened Def Con from 7.78353e-006 to 7.79153e-006
Heightened Def Con from 7.79326e-006 to 7.79939e-006
Heightened Def Con from 7.80041e-006 to 7.80741e-006
Heightened Def Con from 7.80924e-006 to 7.81524e-006
Heightened Def Con from 7.82501e-006 to 7.82601e-006
Heightened Def Con from 7.82602e-006 to 7.82702e-006
Heightened Def Con from 7.82703e-006 to 7.83403e-006
Heightened Def Con from 7.84308e-006 to 7.85008e-006
Heightened Def Con from 7.85246e-006 to 7.85284e-006
Heightened Def Con from 7.85297e-006 to 7.86097e-006
Heightened Def Con from 7.86168e-006 to 7.86205e-006
Heightened Def Con from 7.86219e-006 to 7.86931e-006
Heightened Def Con from 7.86998e-006 to 7.87598e-006
Heightened Def Con from 7.87844e-006 to 7.87894e-006
Heightened Def Con from 7.87934e-006 to 7.87972e-006
Heightened Def Con from 7.87979e-006 to 7.88579e-006
Heightened Def Con from 7.8892e-006 to 7.89833e-006
Heightened Def Con from 7.89949e-006 to 7.90549e-006
Heightened Def Con from 7.90979e-006 to 7.91791e-006
Heightened Def Con from 7.9192e-006 to 7.92057e-006
Heightened Def Con from 7.92087e-006 to 7.92124e-006
Heightened Def Con from 7.9213e-006 to 7.93142e-006
Heightened Def Con from 7.93217e-006 to 7.93929e-006
Heightened Def Con from 7.94037e-006 to 7.94138e-006
Heightened Def Con from 7.94138e-006 to 7.94488e-006
Heightened Def Con from 7.9783e-006 to 7.97855e-006
Heightened Def Con from 7.97855e-006 to 7.98668e-006
Heightened Def Con from 7.98775e-006 to 7.99175e-006
Heightened Def Con from 7.99183e-006 to 7.99783e-006
Heightened Def Con from 8.01208e-006 to 8.01308e-006
Heightened Def Con from 8.01308e-006 to 8.02208e-006
Heightened Def Con from 8.03142e-006 to 8.03254e-006
Heightened Def Con from 8.0326e-006 to 8.0386e-006
Heightened Def Con from 8.04223e-006 to 8.04823e-006
Heightened Def Con from 8.05328e-006 to 8.06028e-006
Heightened Def Con from 8.06309e-006 to 8.06409e-006
Heightened Def Con from 8.06409e-006 to 8.06609e-006
Heightened Def Con from 8.0661e-006 to 8.0721e-006
Heightened Def Con from 8.07802e-006 to 8.08402e-006
Heightened Def Con from 8.08433e-006 to 8.09033e-006
Heightened Def Con from 8.09349e-006 to 8.09949e-006
Heightened Def Con from 8.10416e-006 to 8.11016e-006
Heightened Def Con from 8.11502e-006 to 8.12102e-006
Heightened Def Con from 8.12586e-006 to 8.12623e-006
Heightened Def Con from 8.12635e-006 to 8.13235e-006
Heightened Def Con from 8.1351e-006 to 8.1361e-006
Heightened Def Con from 8.1361e-006 to 8.1396e-006
Heightened Def Con from 8.17638e-006 to 8.17688e-006
Heightened Def Con from 8.17688e-006 to 8.18088e-006
Heightened Def Con from 8.18497e-006 to 8.18847e-006
Heightened Def Con from 8.191e-006 to 8.19312e-006
Heightened Def Con from 8.19316e-006 to 8.19516e-006
Heightened Def Con from 8.19517e-006 to 8.20217e-006
Heightened Def Con from 8.23646e-006 to 8.24246e-006
Heightened Def Con from 8.25416e-006 to 8.25628e-006
Heightened Def Con from 8.25631e-006 to 8.26231e-006
Heightened Def Con from 8.27034e-006 to 8.27134e-006
Heightened Def Con from 8.27134e-006 to 8.2716e-006
Heightened Def Con from 8.2716e-006 to 8.2786e-006
Heightened Def Con from 8.28446e-006 to 8.28559e-006
Heightened Def Con from 8.28564e-006 to 8.29164e-006
Heightened Def Con from 8.29566e-006 to 8.30166e-006
Heightened Def Con from 8.30641e-006 to 8.31241e-006
Heightened Def Con from 8.31909e-006 to 8.32509e-006
Heightened Def Con from 8.33176e-006 to 8.33776e-006
Heightened Def Con from 8.3428e-006 to 8.34393e-006
Heightened Def Con from 8.34418e-006 to 8.3543e-006
Heightened Def Con from 8.35505e-006 to 8.36105e-006
Heightened Def Con from 8.36487e-006 to 8.36837e-006
Heightened Def Con from 8.3754e-006 to 8.3814e-006
Heightened Def Con from 8.38487e-006 to 8.39187e-006
Heightened Def Con from 8.39292e-006 to 8.39642e-006
Heightened Def Con from 8.40013e-006 to 8.40813e-006
Heightened Def Con from 8.40885e-006 to 8.41598e-006
Heightened Def Con from 8.41735e-006 to 8.41847e-006
Heightened Def Con from 8.41852e-006 to 8.42652e-006
Heightened Def Con from 8.42789e-006 to 8.43389e-006
Heightened Def Con from 8.4382e-006 to 8.44533e-006
Heightened Def Con from 8.44651e-006 to 8.44751e-006
Heightened Def Con from 8.44751e-006 to 8.45101e-006
Heightened Def Con from 8.48151e-006 to 8.48201e-006
Heightened Def Con from 8.48201e-006 to 8.48601e-006
Heightened Def Con from 8.49073e-006 to 8.49423e-006
Heightened Def Con from 8.49631e-006 to 8.49681e-006
Heightened Def Con from 8.49694e-006 to 8.50106e-006
Heightened Def Con from 8.50228e-006 to 8.50828e-006
Heightened Def Con from 8.52345e-006 to 8.52945e-006
Heightened Def Con from 8.53932e-006 to 8.54132e-006
Heightened Def Con from 8.54133e-006 to 8.54733e-006
Heightened Def Con from 8.5484e-006 to 8.5494e-006
Heightened Def Con from 8.5494e-006 to 8.5564e-006
Heightened Def Con from 8.56295e-006 to 8.56895e-006
Heightened Def Con from 8.5713e-006 to 8.5773e-006
Heightened Def Con from 8.57912e-006 to 8.58512e-006
Heightened Def Con from 8.5904e-006 to 8.5964e-006
Heightened Def Con from 8.6051e-006 to 8.6111e-006
Heightened Def Con from 8.61833e-006 to 8.61946e-006
Heightened Def Con from 8.61953e-006 to 8.62553e-006
Heightened Def Con from 8.63072e-006 to 8.63672e-006
Heightened Def Con from 8.64058e-006 to 8.64158e-006
Heightened Def Con from 8.64158e-006 to 8.64508e-006
Heightened Def Con from 8.64583e-006 to 8.65483e-006
Heightened Def Con from 8.65728e-006 to 8.65828e-006
Heightened Def Con from 8.65828e-006 to 8.65853e-006
Heightened Def Con from 8.65854e-006 to 8.66766e-006
Heightened Def Con from 8.66903e-006 to 8.66941e-006
Heightened Def Con from 8.66956e-006 to 8.67306e-006
Heightened Def Con from 8.67621e-006 to 8.67759e-006
Heightened Def Con from 8.67775e-006 to 8.67875e-006
Heightened Def Con from 8.67875e-006 to 8.67938e-006
Heightened Def Con from 8.67939e-006 to 8.68039e-006
Heightened Def Con from 8.68039e-006 to 8.68064e-006
Heightened Def Con from 8.68064e-006 to 8.68664e-006
Heightened Def Con from 8.69163e-006 to 8.69275e-006
Heightened Def Con from 8.69288e-006 to 8.69888e-006
Heightened Def Con from 8.69955e-006 to 8.70667e-006
Heightened Def Con from 8.70777e-006 to 8.70889e-006
Heightened Def Con from 8.70902e-006 to 8.71502e-006
Heightened Def Con from 8.71764e-006 to 8.71876e-006
Heightened Def Con from 8.71884e-006 to 8.72584e-006
Heightened Def Con from 8.72809e-006 to 8.73509e-006
Heightened Def Con from 8.73714e-006 to 8.74314e-006
Heightened Def Con from 8.74659e-006 to 8.75259e-006
Heightened Def Con from 8.75767e-006 to 8.7588e-006
Heightened Def Con from 8.75902e-006 to 8.76502e-006
Heightened Def Con from 8.77039e-006 to 8.77739e-006
Heightened Def Con from 8.77904e-006 to 8.78816e-006
Heightened Def Con from 8.78937e-006 to 8.79649e-006
Heightened Def Con from 8.79793e-006 to 8.79906e-006
Heightened Def Con from 8.79913e-006 to 8.80813e-006
Heightened Def Con from 8.80972e-006 to 8.81322e-006
Heightened Def Con from 8.8188e-006 to 8.8258e-006
Heightened Def Con from 8.82751e-006 to 8.83464e-006
Heightened Def Con from 8.83524e-006 to 8.83624e-006
Heightened Def Con from 8.83625e-006 to 8.83975e-006
Heightened Def Con from 8.83985e-006 to 8.84985e-006
Heightened Def Con from 8.85123e-006 to 8.86036e-006
Heightened Def Con from 8.86107e-006 to 8.86819e-006
Heightened Def Con from 8.86886e-006 to 8.87786e-006
Heightened Def Con from 8.87834e-006 to 8.88434e-006
Heightened Def Con from 8.8874e-006 to 8.8934e-006
Heightened Def Con from 8.89892e-006 to 8.90004e-006
Heightened Def Con from 8.90088e-006 to 8.90688e-006
Heightened Def Con from 8.91277e-006 to 8.91877e-006
Heightened Def Con from 8.92211e-006 to 8.93123e-006
Heightened Def Con from 8.93219e-006 to 8.94032e-006
Heightened Def Con from 8.94168e-006 to 8.94518e-006
Heightened Def Con from 8.94853e-006 to 8.95666e-006
Heightened Def Con from 8.95739e-006 to 8.95789e-006
Heightened Def Con from 8.95808e-006 to 8.95846e-006
Heightened Def Con from 8.95853e-006 to 8.96553e-006
Heightened Def Con from 8.96623e-006 to 8.96723e-006
Heightened Def Con from 8.96724e-006 to 8.97074e-006
Heightened Def Con from 9.00451e-006 to 9.00477e-006
Heightened Def Con from 9.00477e-006 to 9.01077e-006
Heightened Def Con from 9.01356e-006 to 9.02068e-006
Heightened Def Con from 9.02072e-006 to 9.02772e-006
Heightened Def Con from 9.03824e-006 to 9.04324e-006
Heightened Def Con from 9.08423e-006 to 9.08773e-006
Heightened Def Con from 9.09375e-006 to 9.09888e-006
Heightened Def Con from 9.09992e-006 to 9.10592e-006
Heightened Def Con from 9.10996e-006 to 9.11696e-006
Heightened Def Con from 9.17125e-006 to 9.18025e-006
Heightened Def Con from 9.18074e-006 to 9.18787e-006
Heightened Def Con from 9.18796e-006 to 9.19496e-006
Heightened Def Con from 9.22633e-006 to 9.22771e-006
Heightened Def Con from 9.22795e-006 to 9.23395e-006
Heightened Def Con from 9.23816e-006 to 9.24416e-006
Heightened Def Con from 9.24718e-006 to 9.24818e-006
Heightened Def Con from 9.24818e-006 to 9.24843e-006
Heightened Def Con from 9.24843e-006 to 9.25543e-006
Heightened Def Con from 9.26347e-006 to 9.27047e-006
Heightened Def Con from 9.27668e-006 to 9.28668e-006
Heightened Def Con from 9.28857e-006 to 9.29657e-006
Heightened Def Con from 9.29946e-006 to 9.30546e-006
Heightened Def Con from 9.30957e-006 to 9.31769e-006
Heightened Def Con from 9.31903e-006 to 9.32016e-006
Heightened Def Con from 9.32024e-006 to 9.32937e-006
Heightened Def Con from 9.33089e-006 to 9.33789e-006
Heightened Def Con from 9.33977e-006 to 9.34889e-006
Heightened Def Con from 9.34986e-006 to 9.35699e-006
Heightened Def Con from 9.35858e-006 to 9.36595e-006
Heightened Def Con from 9.36693e-006 to 9.37606e-006
Heightened Def Con from 9.3768e-006 to 9.3778e-006
Heightened Def Con from 9.3778e-006 to 9.3813e-006
Heightened Def Con from 9.40714e-006 to 9.40764e-006
Heightened Def Con from 9.40764e-006 to 9.41464e-006
Heightened Def Con from 9.41685e-006 to 9.42035e-006
Heightened Def Con from 9.42076e-006 to 9.42488e-006
Heightened Def Con from 9.42498e-006 to 9.43098e-006
Heightened Def Con from 9.46131e-006 to 9.46731e-006
Heightened Def Con from 9.47087e-006 to 9.47687e-006
Heightened Def Con from 9.47979e-006 to 9.48579e-006
Heightened Def Con from 9.51733e-006 to 9.51871e-006
Heightened Def Con from 9.51882e-006 to 9.52682e-006
Heightened Def Con from 9.52897e-006 to 9.53247e-006
Heightened Def Con from 9.53506e-006 to 9.54206e-006
Heightened Def Con from 9.54296e-006 to 9.54896e-006
Heightened Def Con from 9.55258e-006 to 9.55858e-006
Heightened Def Con from 9.59363e-006 to 9.59713e-006
Heightened Def Con from 9.60303e-006 to 9.60653e-006
Heightened Def Con from 9.60872e-006 to 9.61284e-006
Heightened Def Con from 9.61376e-006 to 9.61976e-006
Heightened Def Con from 9.62187e-006 to 9.62787e-006
Heightened Def Con from 9.65924e-006 to 9.66724e-006
Heightened Def Con from 9.66923e-006 to 9.67523e-006
Heightened Def Con from 9.6773e-006 to 9.6783e-006
Heightened Def Con from 9.6783e-006 to 9.67855e-006
Heightened Def Con from 9.67855e-006 to 9.68555e-006
Heightened Def Con from 9.68989e-006 to 9.69589e-006
Heightened Def Con from 9.70268e-006 to 9.70868e-006
Heightened Def Con from 9.71447e-006 to 9.72047e-006
Heightened Def Con from 9.72524e-006 to 9.73524e-006
Heightened Def Con from 9.73614e-006 to 9.74726e-006
Heightened Def Con from 9.74758e-006 to 9.75358e-006
Heightened Def Con from 9.75863e-006 to 9.76463e-006
Heightened Def Con from 9.76917e-006 to 9.77617e-006
Heightened Def Con from 9.77992e-006 to 9.7813e-006
Heightened Def Con from 9.78155e-006 to 9.78292e-006
Heightened Def Con from 9.78347e-006 to 9.78697e-006
Heightened Def Con from 9.79472e-006 to 9.79822e-006
Heightened Def Con from 9.8025e-006 to 9.80362e-006
Heightened Def Con from 9.80387e-006 to 9.80987e-006
Heightened Def Con from 9.81189e-006 to 9.81901e-006
Heightened Def Con from 9.81976e-006 to 9.82488e-006
Heightened Def Con from 9.82592e-006 to 9.83192e-006
Heightened Def Con from 9.83427e-006 to 9.8424e-006
Heightened Def Con from 9.84318e-006 to 9.8443e-006
Heightened Def Con from 9.84438e-006 to 9.8545e-006
Heightened Def Con from 9.85561e-006 to 9.86461e-006
Heightened Def Con from 9.86645e-006 to 9.87645e-006
Heightened Def Con from 9.87756e-006 to 9.88356e-006
Heightened Def Con from 9.88747e-006 to 9.89097e-006
Heightened Def Con from 9.89521e-006 to 9.89871e-006
Heightened Def Con from 9.90321e-006 to 9.90458e-006
Heightened Def Con from 9.90472e-006 to 9.90822e-006
Heightened Def Con from 9.91363e-006 to 9.92176e-006
Heightened Def Con from 9.92263e-006 to 9.92875e-006
Heightened Def Con from 9.92941e-006 to 9.93541e-006
Heightened Def Con from 9.93771e-006 to 9.94371e-006
Heightened Def Con from 9.94679e-006 to 9.95692e-006
Heightened Def Con from 9.95731e-006 to 9.95831e-006
Heightened Def Con from 9.95831e-006 to 9.96181e-006
Heightened Def Con from 9.99186e-006 to 9.99236e-006
Heightened Def Con from 9.99236e-006 to 9.99636e-006
Heightened Def Con from 1.00014e-005 to 1.00016e-005
Heightened Def Con from 1.00016e-005 to 1.00088e-005
Heightened Def Con from 1.00096e-005 to 1.00118e-005
Heightened Def Con from 1.00118e-005 to 1.00189e-005
Heightened Def Con from 1.00189e-005 to 1.00249e-005
Heightened Def Con from 1.00456e-005 to 1.00516e-005
Heightened Def Con from 1.00553e-005 to 1.00563e-005
Heightened Def Con from 1.00563e-005 to 1.00623e-005
Heightened Def Con from 1.00626e-005 to 1.00686e-005
Heightened Def Con from 1.01017e-005 to 1.01098e-005
Heightened Def Con from 1.01109e-005 to 1.01179e-005
Heightened Def Con from 1.01198e-005 to 1.01258e-005
Heightened Def Con from 1.01316e-005 to 1.01326e-005
Heightened Def Con from 1.01326e-005 to 1.01328e-005
Heightened Def Con from 1.01328e-005 to 1.01408e-005
Heightened Def Con from 1.01475e-005 to 1.01485e-005
Heightened Def Con from 1.01485e-005 to 1.01492e-005
Heightened Def Con from 1.01492e-005 to 1.01502e-005
Heightened Def Con from 1.01502e-005 to 1.01522e-005
Heightened Def Con from 1.01522e-005 to 1.01592e-005
Heightened Def Con from 1.01638e-005 to 1.01698e-005
Heightened Def Con from 1.01708e-005 to 1.01778e-005
Heightened Def Con from 1.01814e-005 to 1.01874e-005
Heightened Def Con from 1.01926e-005 to 1.01986e-005
Heightened Def Con from 1.02038e-005 to 1.02119e-005
Heightened Def Con from 1.02127e-005 to 1.02227e-005
Heightened Def Con from 1.02247e-005 to 1.02327e-005
Heightened Def Con from 1.0235e-005 to 1.02362e-005
Heightened Def Con from 1.02364e-005 to 1.02455e-005
Heightened Def Con from 1.02461e-005 to 1.02541e-005
Heightened Def Con from 1.02552e-005 to 1.02632e-005
Heightened Def Con from 1.02638e-005 to 1.02699e-005
Heightened Def Con from 1.02714e-005 to 1.02728e-005
Heightened Def Con from 1.0273e-005 to 1.0279e-005
Heightened Def Con from 1.02841e-005 to 1.02921e-005
Heightened Def Con from 1.02943e-005 to 1.02957e-005
Heightened Def Con from 1.02958e-005 to 1.02993e-005
Heightened Def Con from 1.03041e-005 to 1.03066e-005
Heightened Def Con from 1.03067e-005 to 1.03102e-005
Heightened Def Con from 1.03169e-005 to 1.03179e-005
Heightened Def Con from 1.03179e-005 to 1.03182e-005
Heightened Def Con from 1.03185e-005 to 1.0322e-005
Heightened Def Con from 1.03272e-005 to 1.03332e-005
Heightened Def Con from 1.03351e-005 to 1.03412e-005
Heightened Def Con from 1.03427e-005 to 1.03498e-005
Heightened Def Con from 1.03509e-005 to 1.03519e-005
Heightened Def Con from 1.03519e-005 to 1.03526e-005
Heightened Def Con from 1.03526e-005 to 1.03536e-005
Heightened Def Con from 1.03536e-005 to 1.03571e-005
Heightened Def Con from 1.03729e-005 to 1.03799e-005
Heightened Def Con from 1.03821e-005 to 1.03834e-005
Heightened Def Con from 1.03835e-005 to 1.03907e-005
Heightened Def Con from 1.03913e-005 to 1.03917e-005
Heightened Def Con from 1.03918e-005 to 1.03988e-005
Heightened Def Con from 1.03999e-005 to 1.04059e-005
Heightened Def Con from 1.04136e-005 to 1.04196e-005
Heightened Def Con from 1.04277e-005 to 1.04337e-005
Heightened Def Con from 1.04394e-005 to 1.04474e-005
Heightened Def Con from 1.04514e-005 to 1.04516e-005
Heightened Def Con from 1.0452e-005 to 1.0458e-005
Heightened Def Con from 1.04642e-005 to 1.04702e-005
Heightened Def Con from 1.04755e-005 to 1.04855e-005
Heightened Def Con from 1.04868e-005 to 1.04958e-005
Heightened Def Con from 1.04969e-005 to 1.05029e-005
Heightened Def Con from 1.05047e-005 to 1.05138e-005
Heightened Def Con from 1.05146e-005 to 1.05217e-005
Heightened Def Con from 1.05231e-005 to 1.05236e-005
Heightened Def Con from 1.05237e-005 to 1.0526e-005
Heightened Def Con from 1.05261e-005 to 1.05361e-005
Heightened Def Con from 1.05379e-005 to 1.05459e-005
Heightened Def Con from 1.0548e-005 to 1.05494e-005
Heightened Def Con from 1.05495e-005 to 1.05565e-005
Heightened Def Con from 1.05594e-005 to 1.05608e-005
Heightened Def Con from 1.05609e-005 to 1.05644e-005
Heightened Def Con from 1.05703e-005 to 1.05785e-005
Heightened Def Con from 1.05797e-005 to 1.05849e-005
Heightened Def Con from 1.05864e-005 to 1.05935e-005
Heightened Def Con from 1.05948e-005 to 1.06029e-005
Heightened Def Con from 1.06036e-005 to 1.06116e-005
Heightened Def Con from 1.06126e-005 to 1.06196e-005
Heightened Def Con from 1.06218e-005 to 1.0632e-005
Heightened Def Con from 1.06325e-005 to 1.06385e-005
Heightened Def Con from 1.06434e-005 to 1.06494e-005
Heightened Def Con from 1.06528e-005 to 1.06539e-005
Heightened Def Con from 1.06543e-005 to 1.06623e-005
Heightened Def Con from 1.06644e-005 to 1.06657e-005
Heightened Def Con from 1.0666e-005 to 1.0675e-005
Heightened Def Con from 1.0677e-005 to 1.06805e-005
Heightened Def Con from 1.06857e-005 to 1.06937e-005
Heightened Def Con from 1.06949e-005 to 1.06959e-005
Heightened Def Con from 1.06959e-005 to 1.06962e-005
Heightened Def Con from 1.06962e-005 to 1.07022e-005
Heightened Def Con from 1.07055e-005 to 1.07069e-005
Heightened Def Con from 1.07072e-005 to 1.07132e-005
Heightened Def Con from 1.07159e-005 to 1.07173e-005
Heightened Def Con from 1.07174e-005 to 1.07256e-005
Heightened Def Con from 1.07267e-005 to 1.07338e-005
Heightened Def Con from 1.07344e-005 to 1.07404e-005
Heightened Def Con from 1.07431e-005 to 1.07491e-005
Heightened Def Con from 1.07536e-005 to 1.07596e-005
Heightened Def Con from 1.07665e-005 to 1.07725e-005
Heightened Def Con from 1.07781e-005 to 1.07795e-005
Heightened Def Con from 1.07798e-005 to 1.07802e-005
Heightened Def Con from 1.07803e-005 to 1.07873e-005
Heightened Def Con from 1.07915e-005 to 1.07985e-005
Heightened Def Con from 1.08012e-005 to 1.08047e-005
Heightened Def Con from 1.08087e-005 to 1.08168e-005
Heightened Def Con from 1.08175e-005 to 1.08179e-005
Heightened Def Con from 1.0818e-005 to 1.0824e-005
Heightened Def Con from 1.08263e-005 to 1.08267e-005
Heightened Def Con from 1.08268e-005 to 1.08329e-005
Heightened Def Con from 1.08337e-005 to 1.08397e-005
Heightened Def Con from 1.08414e-005 to 1.08484e-005
Heightened Def Con from 1.08511e-005 to 1.08571e-005
Heightened Def Con from 1.08607e-005 to 1.08667e-005
Heightened Def Con from 1.08729e-005 to 1.08829e-005
Heightened Def Con from 1.08848e-005 to 1.08918e-005
Heightened Def Con from 1.08955e-005 to 1.09015e-005
Heightened Def Con from 1.09049e-005 to 1.09109e-005
Heightened Def Con from 1.09135e-005 to 1.09139e-005
Heightened Def Con from 1.0914e-005 to 1.09175e-005
Heightened Def Con from 1.09217e-005 to 1.09252e-005
Heightened Def Con from 1.09297e-005 to 1.09357e-005
Heightened Def Con from 1.09386e-005 to 1.09457e-005
Heightened Def Con from 1.0947e-005 to 1.09541e-005
Heightened Def Con from 1.09551e-005 to 1.09561e-005
Heightened Def Con from 1.09561e-005 to 1.09563e-005
Heightened Def Con from 1.09563e-005 to 1.09623e-005
Heightened Def Con from 1.09707e-005 to 1.09767e-005
Heightened Def Con from 1.09814e-005 to 1.09894e-005
Heightened Def Con from 1.09902e-005 to 1.09963e-005
Heightened Def Con from 1.09969e-005 to 1.10029e-005
Heightened Def Con from 1.10048e-005 to 1.10138e-005
Heightened Def Con from 1.10148e-005 to 1.10208e-005
Heightened Def Con from 1.10256e-005 to 1.10316e-005
Heightened Def Con from 1.10379e-005 to 1.10479e-005
Heightened Def Con from 1.10497e-005 to 1.10567e-005
Heightened Def Con from 1.10606e-005 to 1.10697e-005
Heightened Def Con from 1.10705e-005 to 1.10719e-005
Heightened Def Con from 1.1072e-005 to 1.1079e-005
Heightened Def Con from 1.10809e-005 to 1.1082e-005
Heightened Def Con from 1.10822e-005 to 1.10892e-005
Heightened Def Con from 1.1092e-005 to 1.11001e-005
Heightened Def Con from 1.11012e-005 to 1.11072e-005
Heightened Def Con from 1.11097e-005 to 1.11108e-005
Heightened Def Con from 1.11109e-005 to 1.11179e-005
Heightened Def Con from 1.11194e-005 to 1.11254e-005
Heightened Def Con from 1.11273e-005 to 1.11363e-005
Heightened Def Con from 1.11375e-005 to 1.11455e-005
Heightened Def Con from 1.1148e-005 to 1.11581e-005
Heightened Def Con from 1.11588e-005 to 1.11668e-005
Heightened Def Con from 1.11693e-005 to 1.11784e-005
Heightened Def Con from 1.11798e-005 to 1.11812e-005
Heightened Def Con from 1.11814e-005 to 1.11894e-005
Heightened Def Con from 1.11929e-005 to 1.11964e-005
Heightened Def Con from 1.12019e-005 to 1.12054e-005
Heightened Def Con from 1.12115e-005 to 1.1215e-005
Heightened Def Con from 1.12197e-005 to 1.12232e-005
Heightened Def Con from 1.12268e-005 to 1.12278e-005
Heightened Def Con from 1.12278e-005 to 1.12313e-005
Heightened Def Con from 1.12315e-005 to 1.12385e-005
Heightened Def Con from 1.1242e-005 to 1.12481e-005
Heightened Def Con from 1.12493e-005 to 1.12497e-005
Heightened Def Con from 1.12498e-005 to 1.12503e-005
Heightened Def Con from 1.12504e-005 to 1.12555e-005
Heightened Def Con from 1.1257e-005 to 1.1263e-005
Heightened Def Con from 1.12649e-005 to 1.12662e-005
Heightened Def Con from 1.12664e-005 to 1.12755e-005
Heightened Def Con from 1.12761e-005 to 1.12821e-005
Heightened Def Con from 1.12861e-005 to 1.12866e-005
Heightened Def Con from 1.12868e-005 to 1.12878e-005
Heightened Def Con from 1.12878e-005 to 1.12913e-005
Heightened Def Con from 1.13215e-005 to 1.13245e-005
Heightened Def Con from 1.13314e-005 to 1.13334e-005
Heightened Def Con from 1.13334e-005 to 1.13394e-005
Heightened Def Con from 1.13419e-005 to 1.13429e-005
Heightened Def Con from 1.13429e-005 to 1.13431e-005
Heightened Def Con from 1.13431e-005 to 1.13481e-005
Heightened Def Con from 1.13482e-005 to 1.13542e-005
Heightened Def Con from 1.1387e-005 to 1.1394e-005
Heightened Def Con from 1.14013e-005 to 1.14083e-005
Heightened Def Con from 1.14437e-005 to 1.14472e-005
Heightened Def Con from 1.14533e-005 to 1.14568e-005
Heightened Def Con from 1.14598e-005 to 1.14619e-005
Heightened Def Con from 1.1462e-005 to 1.1468e-005
Heightened Def Con from 1.14696e-005 to 1.14756e-005
Heightened Def Con from 1.14795e-005 to 1.14865e-005
Heightened Def Con from 1.15196e-005 to 1.15207e-005
Heightened Def Con from 1.1521e-005 to 1.1528e-005
Heightened Def Con from 1.1531e-005 to 1.15314e-005
Heightened Def Con from 1.15315e-005 to 1.15376e-005
Heightened Def Con from 1.15385e-005 to 1.15455e-005
Heightened Def Con from 1.15509e-005 to 1.15519e-005
Heightened Def Con from 1.15519e-005 to 1.15629e-005
Heightened Def Con from 1.1575e-005 to 1.1584e-005
Heightened Def Con from 1.15855e-005 to 1.15865e-005
Heightened Def Con from 1.15865e-005 to 1.159e-005
Heightened Def Con from 1.16204e-005 to 1.16264e-005
Heightened Def Con from 1.16296e-005 to 1.16356e-005
Heightened Def Con from 1.16373e-005 to 1.16433e-005
Heightened Def Con from 1.16757e-005 to 1.16817e-005
Heightened Def Con from 1.16875e-005 to 1.16935e-005
Heightened Def Con from 1.16987e-005 to 1.17047e-005
Heightened Def Con from 1.17105e-005 to 1.17165e-005
Heightened Def Con from 1.17212e-005 to 1.17272e-005
Heightened Def Con from 1.17302e-005 to 1.17306e-005
Heightened Def Con from 1.17307e-005 to 1.17397e-005
Heightened Def Con from 1.1742e-005 to 1.1752e-005
Heightened Def Con from 1.1754e-005 to 1.1763e-005
Heightened Def Con from 1.17656e-005 to 1.1767e-005
Heightened Def Con from 1.17674e-005 to 1.17678e-005
Heightened Def Con from 1.17678e-005 to 1.17748e-005
Heightened Def Con from 1.17785e-005 to 1.17845e-005
Heightened Def Con from 1.1787e-005 to 1.1794e-005
Heightened Def Con from 1.17947e-005 to 1.18019e-005
Heightened Def Con from 1.18031e-005 to 1.18036e-005
Heightened Def Con from 1.18038e-005 to 1.18048e-005
Heightened Def Con from 1.18048e-005 to 1.1805e-005
Heightened Def Con from 1.1805e-005 to 1.1811e-005
Heightened Def Con from 1.18188e-005 to 1.18248e-005
Heightened Def Con from 1.18296e-005 to 1.18331e-005
Heightened Def Con from 1.18375e-005 to 1.18445e-005
Heightened Def Con from 1.18457e-005 to 1.18529e-005
Heightened Def Con from 1.18537e-005 to 1.18547e-005
Heightened Def Con from 1.18547e-005 to 1.18617e-005
Heightened Def Con from 1.18638e-005 to 1.18698e-005
Heightened Def Con from 1.18752e-005 to 1.18812e-005
Heightened Def Con from 1.18875e-005 to 1.18935e-005
Heightened Def Con from 1.18984e-005 to 1.18996e-005
Heightened Def Con from 1.18996e-005 to 1.19056e-005
Heightened Def Con from 1.1909e-005 to 1.19104e-005
Heightened Def Con from 1.19108e-005 to 1.19178e-005
Heightened Def Con from 1.19222e-005 to 1.19292e-005
Heightened Def Con from 1.19324e-005 to 1.19334e-005
Heightened Def Con from 1.19334e-005 to 1.1934e-005
Heightened Def Con from 1.1934e-005 to 1.1935e-005
Heightened Def Con from 1.1935e-005 to 1.19353e-005
Heightened Def Con from 1.19353e-005 to 1.19443e-005
Heightened Def Con from 1.19465e-005 to 1.19516e-005
Heightened Def Con from 1.19527e-005 to 1.19587e-005
Heightened Def Con from 1.19607e-005 to 1.19667e-005
Heightened Def Con from 1.19697e-005 to 1.19701e-005
Heightened Def Con from 1.19704e-005 to 1.19764e-005
Heightened Def Con from 1.19806e-005 to 1.19866e-005
Heightened Def Con from 1.19925e-005 to 1.19985e-005
Heightened Def Con from 1.20029e-005 to 1.2004e-005
Heightened Def Con from 1.20044e-005 to 1.20144e-005
Heightened Def Con from 1.20157e-005 to 1.20192e-005
Heightened Def Con from 1.20253e-005 to 1.20323e-005
Heightened Def Con from 1.20349e-005 to 1.20359e-005
Heightened Def Con from 1.20359e-005 to 1.20362e-005
Heightened Def Con from 1.20362e-005 to 1.20432e-005
Heightened Def Con from 1.2046e-005 to 1.20471e-005
Heightened Def Con from 1.20474e-005 to 1.20509e-005
Heightened Def Con from 1.20568e-005 to 1.20628e-005
Heightened Def Con from 1.20654e-005 to 1.20714e-005
Heightened Def Con from 1.20733e-005 to 1.20793e-005
Heightened Def Con from 1.20818e-005 to 1.20878e-005
Heightened Def Con from 1.20905e-005 to 1.2091e-005
Heightened Def Con from 1.20911e-005 to 1.20971e-005
Heightened Def Con from 1.21006e-005 to 1.21066e-005
Heightened Def Con from 1.21119e-005 to 1.21123e-005
Heightened Def Con from 1.21124e-005 to 1.21184e-005
Heightened Def Con from 1.21227e-005 to 1.21238e-005
Heightened Def Con from 1.21238e-005 to 1.21298e-005
Heightened Def Con from 1.21358e-005 to 1.21438e-005
Heightened Def Con from 1.2148e-005 to 1.2155e-005
Heightened Def Con from 1.21583e-005 to 1.21653e-005
Heightened Def Con from 1.21669e-005 to 1.21749e-005
Heightened Def Con from 1.21757e-005 to 1.21827e-005
Heightened Def Con from 1.2184e-005 to 1.21844e-005
Heightened Def Con from 1.21845e-005 to 1.21925e-005
Heightened Def Con from 1.21932e-005 to 1.22013e-005
Heightened Def Con from 1.22023e-005 to 1.22105e-005
Heightened Def Con from 1.22118e-005 to 1.22198e-005
Heightened Def Con from 1.22207e-005 to 1.22298e-005
Heightened Def Con from 1.22305e-005 to 1.22376e-005
Heightened Def Con from 1.22389e-005 to 1.22401e-005
Heightened Def Con from 1.22403e-005 to 1.22463e-005
Heightened Def Con from 1.22503e-005 to 1.22585e-005
Heightened Def Con from 1.22594e-005 to 1.22686e-005
Heightened Def Con from 1.22695e-005 to 1.22755e-005
Heightened Def Con from 1.22789e-005 to 1.22859e-005
Heightened Def Con from 1.22873e-005 to 1.22965e-005
Heightened Def Con from 1.22977e-005 to 1.23057e-005
Heightened Def Con from 1.23074e-005 to 1.23086e-005
Heightened Def Con from 1.23086e-005 to 1.23177e-005
Heightened Def Con from 1.23185e-005 to 1.23266e-005
Heightened Def Con from 1.23279e-005 to 1.2335e-005
Heightened Def Con from 1.23366e-005 to 1.23436e-005
Heightened Def Con from 1.23456e-005 to 1.23547e-005
Heightened Def Con from 1.23552e-005 to 1.23622e-005
Heightened Def Con from 1.2363e-005 to 1.23721e-005
Heightened Def Con from 1.23726e-005 to 1.23818e-005
Heightened Def Con from 1.23823e-005 to 1.23834e-005
Heightened Def Con from 1.23836e-005 to 1.23927e-005
Heightened Def Con from 1.23935e-005 to 1.23946e-005
Heightened Def Con from 1.23947e-005 to 1.24038e-005
Heightened Def Con from 1.24045e-005 to 1.24127e-005
Heightened Def Con from 1.24134e-005 to 1.24205e-005
Heightened Def Con from 1.24219e-005 to 1.24224e-005
Heightened Def Con from 1.24226e-005 to 1.24286e-005
Heightened Def Con from 1.24314e-005 to 1.24328e-005
Heightened Def Con from 1.2433e-005 to 1.2439e-005
Heightened Def Con from 1.24435e-005 to 1.24516e-005
Heightened Def Con from 1.24529e-005 to 1.24543e-005
Heightened Def Con from 1.24545e-005 to 1.24615e-005
Heightened Def Con from 1.24675e-005 to 1.2471e-005
Heightened Def Con from 1.24777e-005 to 1.24812e-005
Heightened Def Con from 1.24856e-005 to 1.24891e-005
Heightened Def Con from 1.24928e-005 to 1.25001e-005
Heightened Def Con from 1.25011e-005 to 1.25024e-005
Heightened Def Con from 1.25026e-005 to 1.25086e-005
Heightened Def Con from 1.2511e-005 to 1.25191e-005
Heightened Def Con from 1.25199e-005 to 1.25204e-005
Heightened Def Con from 1.25206e-005 to 1.25216e-005
Heightened Def Con from 1.25216e-005 to 1.25222e-005
Heightened Def Con from 1.25222e-005 to 1.25232e-005
Heightened Def Con from 1.25232e-005 to 1.25235e-005
Heightened Def Con from 1.25235e-005 to 1.25295e-005
Heightened Def Con from 1.25355e-005 to 1.25365e-005
Heightened Def Con from 1.25365e-005 to 1.25368e-005
Heightened Def Con from 1.25368e-005 to 1.25458e-005
Heightened Def Con from 1.25473e-005 to 1.25564e-005
Heightened Def Con from 1.25573e-005 to 1.25596e-005
Heightened Def Con from 1.25597e-005 to 1.25677e-005
Heightened Def Con from 1.25692e-005 to 1.25752e-005
Heightened Def Con from 1.25782e-005 to 1.25794e-005
Heightened Def Con from 1.25794e-005 to 1.25854e-005
Heightened Def Con from 1.25884e-005 to 1.25895e-005
Heightened Def Con from 1.25896e-005 to 1.25956e-005
Heightened Def Con from 1.26003e-005 to 1.26017e-005
Heightened Def Con from 1.26018e-005 to 1.26078e-005
Heightened Def Con from 1.26113e-005 to 1.26173e-005
Heightened Def Con from 1.26208e-005 to 1.26218e-005
Heightened Def Con from 1.26218e-005 to 1.26249e-005
Heightened Def Con from 1.26249e-005 to 1.26339e-005
Heightened Def Con from 1.26389e-005 to 1.26459e-005
Heightened Def Con from 1.26486e-005 to 1.26509e-005
Heightened Def Con from 1.2651e-005 to 1.26545e-005
[...]
Heightened Def Con from 3.39718e-005 to 3.39789e-005
Heightened Def Con from 3.39802e-005 to 3.39862e-005
Heightened Def Con from 3.39883e-005 to 3.39964e-005
Heightened Def Con from 3.39973e-005 to 3.40054e-005
Heightened Def Con from 3.40068e-005 to 3.40139e-005
Heightened Def Con from 3.40145e-005 to 3.40155e-005
Heightened Def Con from 3.40155e-005 to 3.4019e-005
Heightened Def Con from 3.40531e-005 to 3.40566e-005
Heightened Def Con from 3.40619e-005 to 3.40621e-005
Heightened Def Con from 3.40621e-005 to 3.40681e-005
Heightened Def Con from 3.40694e-005 to 3.40754e-005
Heightened Def Con from 3.40771e-005 to 3.40781e-005
Heightened Def Con from 3.40781e-005 to 3.40784e-005
Heightened Def Con from 3.40784e-005 to 3.40844e-005
Heightened Def Con from 3.40851e-005 to 3.40861e-005
Heightened Def Con from 3.40861e-005 to 3.40941e-005
Heightened Def Con from 3.4129e-005 to 3.4135e-005
Heightened Def Con from 3.41385e-005 to 3.41455e-005
Heightened Def Con from 3.41471e-005 to 3.41531e-005
Heightened Def Con from 3.41859e-005 to 3.4187e-005
Heightened Def Con from 3.41872e-005 to 3.41886e-005
Heightened Def Con from 3.41887e-005 to 3.41967e-005
Heightened Def Con from 3.41991e-005 to 3.41998e-005
Heightened Def Con from 3.41999e-005 to 3.4205e-005
Heightened Def Con from 3.42062e-005 to 3.42122e-005
Heightened Def Con from 3.42138e-005 to 3.42208e-005
Heightened Def Con from 3.42261e-005 to 3.42321e-005
Heightened Def Con from 3.42414e-005 to 3.42474e-005
Heightened Def Con from 3.42534e-005 to 3.42594e-005
Heightened Def Con from 3.42633e-005 to 3.42703e-005
Heightened Def Con from 3.42732e-005 to 3.42832e-005
Heightened Def Con from 3.42836e-005 to 3.4284e-005
Heightened Def Con from 3.42841e-005 to 3.42901e-005
Heightened Def Con from 3.42948e-005 to 3.43048e-005
Heightened Def Con from 3.43068e-005 to 3.43128e-005
Heightened Def Con from 3.43171e-005 to 3.43251e-005
Heightened Def Con from 3.43258e-005 to 3.43329e-005
Heightened Def Con from 3.43341e-005 to 3.43355e-005
Heightened Def Con from 3.43357e-005 to 3.43367e-005
Heightened Def Con from 3.43367e-005 to 3.43369e-005
Heightened Def Con from 3.43369e-005 to 3.43429e-005
Heightened Def Con from 3.4348e-005 to 3.43515e-005
Heightened Def Con from 3.43539e-005 to 3.4362e-005
Heightened Def Con from 3.43634e-005 to 3.43715e-005
Heightened Def Con from 3.43728e-005 to 3.43731e-005
Heightened Def Con from 3.43733e-005 to 3.43803e-005
Heightened Def Con from 3.43821e-005 to 3.43911e-005
Heightened Def Con from 3.43927e-005 to 3.44009e-005
Heightened Def Con from 3.4402e-005 to 3.44034e-005
Heightened Def Con from 3.44035e-005 to 3.44125e-005
Heightened Def Con from 3.44141e-005 to 3.44176e-005
Heightened Def Con from 3.44234e-005 to 3.44269e-005
Heightened Def Con from 3.44317e-005 to 3.44331e-005
Heightened Def Con from 3.44332e-005 to 3.44367e-005
Heightened Def Con from 3.44425e-005 to 3.44495e-005
Heightened Def Con from 3.4451e-005 to 3.44582e-005
Heightened Def Con from 3.44588e-005 to 3.44648e-005
Heightened Def Con from 3.44669e-005 to 3.44729e-005
Heightened Def Con from 3.44749e-005 to 3.44809e-005
Heightened Def Con from 3.44854e-005 to 3.44914e-005
Heightened Def Con from 3.4496e-005 to 3.4497e-005
Heightened Def Con from 3.4497e-005 to 3.4499e-005
Heightened Def Con from 3.4499e-005 to 3.4505e-005
Heightened Def Con from 3.45119e-005 to 3.45179e-005
Heightened Def Con from 3.45218e-005 to 3.45288e-005
Heightened Def Con from 3.45302e-005 to 3.45362e-005
Heightened Def Con from 3.45397e-005 to 3.45467e-005
Heightened Def Con from 3.45497e-005 to 3.45557e-005
Heightened Def Con from 3.45584e-005 to 3.45619e-005
Heightened Def Con from 3.4566e-005 to 3.45671e-005
Heightened Def Con from 3.45673e-005 to 3.45708e-005
Heightened Def Con from 3.45768e-005 to 3.45838e-005
Heightened Def Con from 3.45854e-005 to 3.45865e-005
Heightened Def Con from 3.45866e-005 to 3.45871e-005
Heightened Def Con from 3.45872e-005 to 3.45907e-005
Heightened Def Con from 3.45946e-005 to 3.45959e-005
Heightened Def Con from 3.45961e-005 to 3.45971e-005
Heightened Def Con from 3.45971e-005 to 3.46041e-005
Heightened Def Con from 3.46074e-005 to 3.46154e-005
Heightened Def Con from 3.4616e-005 to 3.46231e-005
Heightened Def Con from 3.46246e-005 to 3.46306e-005
Heightened Def Con from 3.46333e-005 to 3.46393e-005
Heightened Def Con from 3.46422e-005 to 3.46482e-005
Heightened Def Con from 3.4653e-005 to 3.4659e-005
Heightened Def Con from 3.46646e-005 to 3.46746e-005
Heightened Def Con from 3.46763e-005 to 3.46853e-005
Heightened Def Con from 3.4687e-005 to 3.4694e-005
Heightened Def Con from 3.46959e-005 to 3.4704e-005
Heightened Def Con from 3.47054e-005 to 3.47059e-005
Heightened Def Con from 3.4706e-005 to 3.4707e-005
Heightened Def Con from 3.47071e-005 to 3.47162e-005
Heightened Def Con from 3.47171e-005 to 3.47231e-005
Heightened Def Con from 3.47263e-005 to 3.47268e-005
Heightened Def Con from 3.47269e-005 to 3.47274e-005
Heightened Def Con from 3.47275e-005 to 3.47337e-005
Heightened Def Con from 3.4735e-005 to 3.47431e-005
Heightened Def Con from 3.47445e-005 to 3.47456e-005
Heightened Def Con from 3.47457e-005 to 3.47547e-005
Heightened Def Con from 3.47563e-005 to 3.47623e-005
Heightened Def Con from 3.47656e-005 to 3.47717e-005
Heightened Def Con from 3.47723e-005 to 3.47783e-005
Heightened Def Con from 3.47808e-005 to 3.47819e-005
Heightened Def Con from 3.4782e-005 to 3.4788e-005
Heightened Def Con from 3.47923e-005 to 3.47934e-005
Heightened Def Con from 3.47938e-005 to 3.47998e-005
Heightened Def Con from 3.48036e-005 to 3.4805e-005
Heightened Def Con from 3.48053e-005 to 3.48133e-005
Heightened Def Con from 3.48161e-005 to 3.48241e-005
Heightened Def Con from 3.48268e-005 to 3.48349e-005
Heightened Def Con from 3.48363e-005 to 3.48398e-005
Heightened Def Con from 3.48436e-005 to 3.48447e-005
Heightened Def Con from 3.48449e-005 to 3.48541e-005
Heightened Def Con from 3.48547e-005 to 3.48629e-005
Heightened Def Con from 3.4864e-005 to 3.48651e-005
Heightened Def Con from 3.48652e-005 to 3.48722e-005
Heightened Def Con from 3.48749e-005 to 3.48752e-005
Heightened Def Con from 3.48754e-005 to 3.48834e-005
Heightened Def Con from 3.48844e-005 to 3.48915e-005
Heightened Def Con from 3.48924e-005 to 3.48984e-005
Heightened Def Con from 3.49015e-005 to 3.49085e-005
Heightened Def Con from 3.49131e-005 to 3.49191e-005
Heightened Def Con from 3.49258e-005 to 3.49378e-005
Heightened Def Con from 3.49388e-005 to 3.49488e-005
Heightened Def Con from 3.49504e-005 to 3.49539e-005
Heightened Def Con from 3.49594e-005 to 3.49664e-005
Heightened Def Con from 3.4969e-005 to 3.49694e-005
Heightened Def Con from 3.49696e-005 to 3.49766e-005
Heightened Def Con from 3.49781e-005 to 3.49816e-005
Heightened Def Con from 3.49859e-005 to 3.4994e-005
Heightened Def Con from 3.49946e-005 to 3.50028e-005
Heightened Def Con from 3.50039e-005 to 3.50053e-005
Heightened Def Con from 3.50054e-005 to 3.50124e-005
Heightened Def Con from 3.50138e-005 to 3.50218e-005
Heightened Def Con from 3.5024e-005 to 3.5032e-005
Heightened Def Con from 3.50337e-005 to 3.50417e-005
Heightened Def Con from 3.50426e-005 to 3.50508e-005
Heightened Def Con from 3.50518e-005 to 3.50528e-005
Heightened Def Con from 3.50528e-005 to 3.50531e-005
Heightened Def Con from 3.50531e-005 to 3.50631e-005
Heightened Def Con from 3.50645e-005 to 3.50649e-005
Heightened Def Con from 3.50652e-005 to 3.50657e-005
Heightened Def Con from 3.50658e-005 to 3.50664e-005
Heightened Def Con from 3.5067e-005 to 3.5077e-005
Heightened Def Con from 3.50778e-005 to 3.50869e-005
Heightened Def Con from 3.50875e-005 to 3.50936e-005
Heightened Def Con from 3.50944e-005 to 3.51004e-005
Heightened Def Con from 3.51025e-005 to 3.51105e-005
Heightened Def Con from 3.51128e-005 to 3.51138e-005
Heightened Def Con from 3.51138e-005 to 3.5114e-005
Heightened Def Con from 3.5114e-005 to 3.512e-005
Heightened Def Con from 3.51273e-005 to 3.51333e-005
Heightened Def Con from 3.51376e-005 to 3.51436e-005
Heightened Def Con from 3.51461e-005 to 3.51543e-005
Heightened Def Con from 3.51554e-005 to 3.51566e-005
Heightened Def Con from 3.51568e-005 to 3.51638e-005
Heightened Def Con from 3.51681e-005 to 3.51751e-005
Heightened Def Con from 3.51794e-005 to 3.51829e-005
Heightened Def Con from 3.51886e-005 to 3.51956e-005
Heightened Def Con from 3.51973e-005 to 3.51987e-005
Heightened Def Con from 3.51988e-005 to 3.52023e-005
Heightened Def Con from 3.52062e-005 to 3.52122e-005
Heightened Def Con from 3.5215e-005 to 3.5222e-005
Heightened Def Con from 3.52228e-005 to 3.52288e-005
Heightened Def Con from 3.52315e-005 to 3.52375e-005
Heightened Def Con from 3.52383e-005 to 3.52473e-005
Heightened Def Con from 3.5249e-005 to 3.5255e-005
Heightened Def Con from 3.52606e-005 to 3.52611e-005
Heightened Def Con from 3.52616e-005 to 3.52676e-005
Heightened Def Con from 3.53014e-005 to 3.53025e-005
Heightened Def Con from 3.53026e-005 to 3.53028e-005
Heightened Def Con from 3.53028e-005 to 3.53048e-005
Heightened Def Con from 3.53048e-005 to 3.5312e-005
Heightened Def Con from 3.5313e-005 to 3.53135e-005
Heightened Def Con from 3.53136e-005 to 3.53169e-005
Heightened Def Con from 3.5317e-005 to 3.53221e-005
Heightened Def Con from 3.53221e-005 to 3.53291e-005
Heightened Def Con from 3.53617e-005 to 3.53687e-005
Heightened Def Con from 3.53714e-005 to 3.53776e-005
Heightened Def Con from 3.53781e-005 to 3.53851e-005
Heightened Def Con from 3.5387e-005 to 3.5393e-005
Heightened Def Con from 3.54243e-005 to 3.54254e-005
Heightened Def Con from 3.54254e-005 to 3.54324e-005
Heightened Def Con from 3.54353e-005 to 3.54388e-005
Heightened Def Con from 3.54407e-005 to 3.54478e-005
Heightened Def Con from 3.54481e-005 to 3.54541e-005
Heightened Def Con from 3.54595e-005 to 3.54665e-005
Heightened Def Con from 3.54764e-005 to 3.54824e-005
Heightened Def Con from 3.5488e-005 to 3.5494e-005
Heightened Def Con from 3.54961e-005 to 3.55021e-005
Heightened Def Con from 3.55068e-005 to 3.55082e-005
Heightened Def Con from 3.55085e-005 to 3.55145e-005
Heightened Def Con from 3.55193e-005 to 3.55253e-005
Heightened Def Con from 3.55291e-005 to 3.55352e-005
Heightened Def Con from 3.55363e-005 to 3.55376e-005
Heightened Def Con from 3.55379e-005 to 3.55469e-005
Heightened Def Con from 3.55484e-005 to 3.55496e-005
Heightened Def Con from 3.55496e-005 to 3.55556e-005
Heightened Def Con from 3.55603e-005 to 3.55638e-005
Heightened Def Con from 3.557e-005 to 3.55711e-005
Heightened Def Con from 3.55711e-005 to 3.55781e-005
Heightened Def Con from 3.55806e-005 to 3.55877e-005
Heightened Def Con from 3.55887e-005 to 3.55897e-005
Heightened Def Con from 3.55897e-005 to 3.559e-005
Heightened Def Con from 3.559e-005 to 3.5597e-005
Heightened Def Con from 3.56006e-005 to 3.5602e-005
Heightened Def Con from 3.56023e-005 to 3.56093e-005
Heightened Def Con from 3.56128e-005 to 3.56198e-005
Heightened Def Con from 3.56219e-005 to 3.563e-005
Heightened Def Con from 3.56308e-005 to 3.56379e-005
Heightened Def Con from 3.56393e-005 to 3.56397e-005
Heightened Def Con from 3.56398e-005 to 3.56458e-005
Heightened Def Con from 3.5648e-005 to 3.56571e-005
Heightened Def Con from 3.56578e-005 to 3.56583e-005
Heightened Def Con from 3.56585e-005 to 3.56589e-005
Heightened Def Con from 3.5659e-005 to 3.5665e-005
Heightened Def Con from 3.56695e-005 to 3.56755e-005
Heightened Def Con from 3.5679e-005 to 3.56804e-005
Heightened Def Con from 3.56805e-005 to 3.56865e-005
Heightened Def Con from 3.56931e-005 to 3.56991e-005
Heightened Def Con from 3.57042e-005 to 3.57124e-005
Heightened Def Con from 3.57131e-005 to 3.57212e-005
Heightened Def Con from 3.57218e-005 to 3.5723e-005
Heightened Def Con from 3.57231e-005 to 3.57322e-005
Heightened Def Con from 3.57332e-005 to 3.57412e-005
Heightened Def Con from 3.57421e-005 to 3.57435e-005
Heightened Def Con from 3.57438e-005 to 3.57498e-005
Heightened Def Con from 3.57553e-005 to 3.57633e-005
Heightened Def Con from 3.57658e-005 to 3.57729e-005
Heightened Def Con from 3.5774e-005 to 3.57754e-005
Heightened Def Con from 3.57755e-005 to 3.5779e-005
Heightened Def Con from 3.57834e-005 to 3.57848e-005
Heightened Def Con from 3.5785e-005 to 3.5794e-005
Heightened Def Con from 3.57952e-005 to 3.57962e-005
Heightened Def Con from 3.57962e-005 to 3.57964e-005
Heightened Def Con from 3.57964e-005 to 3.58054e-005
Heightened Def Con from 3.58073e-005 to 3.58153e-005
Heightened Def Con from 3.58163e-005 to 3.58174e-005
Heightened Def Con from 3.58176e-005 to 3.58267e-005
Heightened Def Con from 3.58275e-005 to 3.5828e-005
Heightened Def Con from 3.58282e-005 to 3.58285e-005
Heightened Def Con from 3.58286e-005 to 3.58346e-005
Heightened Def Con from 3.58375e-005 to 3.58435e-005
Heightened Def Con from 3.58462e-005 to 3.58522e-005
Heightened Def Con from 3.58541e-005 to 3.58601e-005
Heightened Def Con from 3.58649e-005 to 3.5874e-005
Heightened Def Con from 3.58755e-005 to 3.58815e-005
Heightened Def Con from 3.58861e-005 to 3.58871e-005
Heightened Def Con from 3.58871e-005 to 3.58906e-005
Heightened Def Con from 3.59227e-005 to 3.59229e-005
Heightened Def Con from 3.59229e-005 to 3.59309e-005
Heightened Def Con from 3.59323e-005 to 3.59358e-005
Heightened Def Con from 3.59361e-005 to 3.59421e-005
Heightened Def Con from 3.59423e-005 to 3.59493e-005
Heightened Def Con from 3.59801e-005 to 3.59861e-005
Heightened Def Con from 3.59903e-005 to 3.59964e-005
Heightened Def Con from 3.59975e-005 to 3.60045e-005
Heightened Def Con from 3.60074e-005 to 3.60134e-005
Heightened Def Con from 3.60211e-005 to 3.60271e-005
Heightened Def Con from 3.60376e-005 to 3.60436e-005
Heightened Def Con from 3.60484e-005 to 3.60495e-005
Heightened Def Con from 3.60496e-005 to 3.60556e-005
Heightened Def Con from 3.60587e-005 to 3.60668e-005
Heightened Def Con from 3.60683e-005 to 3.60754e-005
Heightened Def Con from 3.60767e-005 to 3.60847e-005
Heightened Def Con from 3.60855e-005 to 3.60936e-005
Heightened Def Con from 3.60943e-005 to 3.61014e-005
Heightened Def Con from 3.61028e-005 to 3.61042e-005
Heightened Def Con from 3.61043e-005 to 3.61135e-005
Heightened Def Con from 3.61146e-005 to 3.61157e-005
Heightened Def Con from 3.61158e-005 to 3.61249e-005
Heightened Def Con from 3.61259e-005 to 3.61319e-005
Heightened Def Con from 3.61347e-005 to 3.61407e-005
Heightened Def Con from 3.61436e-005 to 3.61496e-005
Heightened Def Con from 3.61539e-005 to 3.61599e-005
Heightened Def Con from 3.6166e-005 to 3.6173e-005
Heightened Def Con from 3.61782e-005 to 3.61793e-005
Heightened Def Con from 3.61794e-005 to 3.61864e-005
Heightened Def Con from 3.61908e-005 to 3.61943e-005
Heightened Def Con from 3.62007e-005 to 3.62042e-005
Heightened Def Con from 3.62092e-005 to 3.62127e-005
Heightened Def Con from 3.62167e-005 to 3.62178e-005
Heightened Def Con from 3.62178e-005 to 3.62248e-005
Heightened Def Con from 3.62265e-005 to 3.62326e-005
Heightened Def Con from 3.62338e-005 to 3.62409e-005
Heightened Def Con from 3.62424e-005 to 3.62437e-005
Heightened Def Con from 3.62439e-005 to 3.6252e-005
Heightened Def Con from 3.62534e-005 to 3.62545e-005
Heightened Def Con from 3.62548e-005 to 3.62648e-005
Heightened Def Con from 3.62662e-005 to 3.62742e-005
Heightened Def Con from 3.62769e-005 to 3.6285e-005
Heightened Def Con from 3.62864e-005 to 3.62924e-005
Heightened Def Con from 3.62943e-005 to 3.62947e-005
Heightened Def Con from 3.62948e-005 to 3.63018e-005
Heightened Def Con from 3.63034e-005 to 3.63094e-005
Heightened Def Con from 3.63122e-005 to 3.63223e-005
Heightened Def Con from 3.63227e-005 to 3.63297e-005
Heightened Def Con from 3.63335e-005 to 3.63435e-005
Heightened Def Con from 3.63459e-005 to 3.63549e-005
Heightened Def Con from 3.63567e-005 to 3.63579e-005
Heightened Def Con from 3.63579e-005 to 3.63659e-005
Heightened Def Con from 3.63674e-005 to 3.63685e-005
Heightened Def Con from 3.63685e-005 to 3.6372e-005
Heightened Def Con from 3.63773e-005 to 3.63787e-005
Heightened Def Con from 3.63789e-005 to 3.63794e-005
Heightened Def Con from 3.63795e-005 to 3.6383e-005
Heightened Def Con from 3.63898e-005 to 3.63933e-005
Heightened Def Con from 3.63978e-005 to 3.63989e-005
Heightened Def Con from 3.63991e-005 to 3.64051e-005
Heightened Def Con from 3.64079e-005 to 3.64151e-005
Heightened Def Con from 3.64162e-005 to 3.64222e-005
Heightened Def Con from 3.64234e-005 to 3.64294e-005
Heightened Def Con from 3.64334e-005 to 3.64394e-005
Heightened Def Con from 3.6446e-005 to 3.6452e-005
Heightened Def Con from 3.64861e-005 to 3.64875e-005
Heightened Def Con from 3.64877e-005 to 3.64882e-005
Heightened Def Con from 3.64882e-005 to 3.64922e-005
Heightened Def Con from 3.64968e-005 to 3.65003e-005
Heightened Def Con from 3.65037e-005 to 3.65072e-005
Heightened Def Con from 3.65081e-005 to 3.65141e-005
Heightened Def Con from 3.65142e-005 to 3.65202e-005
Heightened Def Con from 3.65506e-005 to 3.65566e-005
Heightened Def Con from 3.65602e-005 to 3.65662e-005
Heightened Def Con from 3.65694e-005 to 3.65754e-005
Heightened Def Con from 3.65814e-005 to 3.65874e-005
Heightened Def Con from 3.65937e-005 to 3.65997e-005
Heightened Def Con from 3.66049e-005 to 3.66129e-005
Heightened Def Con from 3.66151e-005 to 3.66231e-005
Heightened Def Con from 3.66257e-005 to 3.66337e-005
Heightened Def Con from 3.66362e-005 to 3.66422e-005
Heightened Def Con from 3.66465e-005 to 3.66545e-005
Heightened Def Con from 3.66566e-005 to 3.66636e-005
Heightened Def Con from 3.66665e-005 to 3.66735e-005
Heightened Def Con from 3.66756e-005 to 3.6677e-005
Heightened Def Con from 3.66773e-005 to 3.66783e-005
Heightened Def Con from 3.66783e-005 to 3.66789e-005
Heightened Def Con from 3.66789e-005 to 3.66799e-005
Heightened Def Con from 3.66799e-005 to 3.66838e-005
Heightened Def Con from 3.66851e-005 to 3.66861e-005
Heightened Def Con from 3.66861e-005 to 3.66864e-005
Heightened Def Con from 3.66864e-005 to 3.66924e-005
Heightened Def Con from 3.66978e-005 to 3.66984e-005
Heightened Def Con from 3.67009e-005 to 3.6706e-005
Heightened Def Con from 3.67066e-005 to 3.67072e-005
Heightened Def Con from 3.67074e-005 to 3.67135e-005
Heightened Def Con from 3.67137e-005 to 3.67197e-005
Heightened Def Con from 3.67229e-005 to 3.67289e-005
Heightened Def Con from 3.67394e-005 to 3.67454e-005
Heightened Def Con from 3.67527e-005 to 3.67587e-005
Heightened Def Con from 3.67625e-005 to 3.67715e-005
Heightened Def Con from 3.67726e-005 to 3.67817e-005
Heightened Def Con from 3.6783e-005 to 3.67901e-005
Heightened Def Con from 3.67914e-005 to 3.68e-005
N-Period=1
Fourier components of I(r1)
DC component:-1.#IND

Harmonic	Frequency	 Fourier 	Normalized	 Phase  	Normalized
 Number 	  [Hz]   	Component	 Component	[degree]	Phase [deg]
    1   	2.712e+07	-1.#IOe+00	-1.#IOe+00	   -1.#J	   -1.#J
    2   	5.424e+07	-1.#IOe+00	-1.#IOe+00	   -1.#J	   -1.#J
    3   	8.136e+07	-1.#IOe+00	-1.#IOe+00	   -1.#J	   -1.#J
    4   	1.085e+08	-1.#IOe+00	-1.#IOe+00	   -1.#J	   -1.#J
    5   	1.356e+08	-1.#IOe+00	-1.#IOe+00	   -1.#J	   -1.#J
    6   	1.627e+08	-1.#IOe+00	-1.#IOe+00	   -1.#J	   -1.#J
    7   	1.898e+08	-1.#IOe+00	-1.#IOe+00	   -1.#J	   -1.#J
    8   	2.170e+08	-1.#IOe+00	-1.#IOe+00	   -1.#J	   -1.#J
    9   	2.441e+08	-1.#IOe+00	-1.#IOe+00	   -1.#J	   -1.#J
Total Harmonic Distortion: -1.#IND00%(0.000000%)



pout: AVG(i(r1)*v(vout))=-1.#IND FROM 0 TO 9.2e-006
pin: AVG(i(v1)*v(vdd))=-1.#IND FROM 0 TO 9.2e-006
eff: pout/pin=-1.#IND
pgate: AVG(i(v2)*v(vg))=-1.#IND FROM 0 TO 9.2e-006
pae: pout/(pin+pgate)=-1.#IND

Measurement "ptx" FAIL'ed

Measurement "prx" FAIL'ed


Date: Sat Sep 14 14:17:18 2019
Total elapsed time: 81.911 seconds.

tnom = 27
temp = 27
method = modified trap
totiter = 9184749
traniter = 9184745
tranpoints = 1312439
accept = 973867
rejected = 343032
matrix size = 14
fillins = 0
solver = Normal
Matrix Compiler1: 626 bytes object code size  0.4/0.4/[0.4]
Matrix Compiler2: off  [0.3]/0.4/0.4

